/*---------------------------------------------------------------------------*\
| =========                 |                                                 |
| \\      /  F ield         | OpenFOAM: The Open Source CFD Toolbox           |
|  \\    /   O peration     | Version:  5.0                                   |
|   \\  /    A nd           | Web:      www.OpenFOAM.org                      |
|    \\/     M anipulation  |                                                 |
\*---------------------------------------------------------------------------*/
Build  : 5.0-dbb428a3a855
Exec   : AnonNewtonianIcoFoam -parallel
Date   : Oct 25 2017
Time   : 14:44:15
Host   : "hermes-N552VW"
PID    : 16698
I/O    : uncollated
Case   : /home/hermes/Desktop/gitDPD/DPDCFD/test
nProcs : 2
Slaves : 1("hermes-N552VW.16699")
Pstream initialized with:
    floatTransfer      : 0
    nProcsSimpleSum    : 0
    commsType          : nonBlocking
    polling iterations : 0
sigFpe : Enabling floating point exception trapping (FOAM_SIGFPE).
fileModificationChecking : Monitoring run-time modified files using timeStampMaster (fileModificationSkew 10)
allowSystemOperations : Allowing user-supplied system call operations

// * * * * * * * * * * * * * * * * * * * * * * * * * * * * * * * * * * * * * //
Create time

Create mesh, no clear-out for time = 0


PISO: Operating solver in PISO mode

Reading field p

Reading field U

Hey! I am faking the viscosity 

Reading/calculating face flux field phi

Selecting incompressible transport model CrossPowerLaw

Starting time loop

Time = 0.01

Courant Number mean: 0 max: 0
Bad Mood
Bad Mood
smoothSolver:  Solving for Ux, Initial residual = 1, Final residual = 7.96258e-06, No Iterations 29
smoothSolver:  Solving for Uy, Initial residual = 0, Final residual = 0, No Iterations 0
GAMG:  Solving for p, Initial residual = 1, Final residual = 0.0570123, No Iterations 4
time step continuity errors : sum local = 9.84182e-11, global = 1.44688e-11, cumulative = 1.44688e-11
GAMG:  Solving for p, Initial residual = 0.565307, Final residual = 0.038872, No Iterations 4
time step continuity errors : sum local = 9.21725e-11, global = 2.07425e-12, cumulative = 1.65431e-11
GAMG:  Solving for p, Initial residual = 0.343066, Final residual = 0.0324371, No Iterations 4
time step continuity errors : sum local = 3.18647e-11, global = -7.23716e-12, cumulative = 9.30591e-12
GAMG:  Solving for p, Initial residual = 0.286955, Final residual = 0.0233549, No Iterations 3
time step continuity errors : sum local = 1.22449e-11, global = 1.81999e-13, cumulative = 9.4879e-12
GAMG:  Solving for p, Initial residual = 0.245232, Final residual = 7.79872e-07, No Iterations 16
time step continuity errors : sum local = 2.613e-16, global = -1.81444e-17, cumulative = 9.48789e-12
ExecutionTime = 0.01 s  ClockTime = 0 s

Time = 0.02

Courant Number mean: 0.00286654 max: 0.00843249
Bad Mood
Bad Mood
smoothSolver:  Solving for Ux, Initial residual = 0.0644861, Final residual = 7.22454e-06, No Iterations 25
smoothSolver:  Solving for Uy, Initial residual = 0.819595, Final residual = 7.35876e-06, No Iterations 28
GAMG:  Solving for p, Initial residual = 0.938013, Final residual = 0.0906855, No Iterations 4
time step continuity errors : sum local = 2.71387e-10, global = 7.79792e-11, cumulative = 8.74671e-11
GAMG:  Solving for p, Initial residual = 0.576974, Final residual = 0.031005, No Iterations 4
time step continuity errors : sum local = 1.18487e-10, global = -1.96537e-11, cumulative = 6.78134e-11
GAMG:  Solving for p, Initial residual = 0.331727, Final residual = 0.0290604, No Iterations 4
time step continuity errors : sum local = 4.69946e-11, global = -1.57743e-11, cumulative = 5.2039e-11
GAMG:  Solving for p, Initial residual = 0.287133, Final residual = 0.017642, No Iterations 3
time step continuity errors : sum local = 1.51011e-11, global = 4.32138e-13, cumulative = 5.24712e-11
GAMG:  Solving for p, Initial residual = 0.202883, Final residual = 9.88692e-07, No Iterations 16
time step continuity errors : sum local = 5.39037e-16, global = -6.26006e-17, cumulative = 5.24711e-11
ExecutionTime = 0.01 s  ClockTime = 0 s

Time = 0.03

Courant Number mean: 0.00395004 max: 0.0091791
Bad Mood
Bad Mood
smoothSolver:  Solving for Ux, Initial residual = 0.024111, Final residual = 7.20958e-06, No Iterations 23
smoothSolver:  Solving for Uy, Initial residual = 0.800947, Final residual = 7.5202e-06, No Iterations 28
GAMG:  Solving for p, Initial residual = 0.885775, Final residual = 0.0872375, No Iterations 4
time step continuity errors : sum local = 2.36565e-10, global = 6.1962e-11, cumulative = 1.14433e-10
GAMG:  Solving for p, Initial residual = 0.594303, Final residual = 0.0317758, No Iterations 4
time step continuity errors : sum local = 1.04432e-10, global = -1.78631e-11, cumulative = 9.657e-11
GAMG:  Solving for p, Initial residual = 0.345837, Final residual = 0.0308341, No Iterations 4
time step continuity errors : sum local = 4.23244e-11, global = -1.53324e-11, cumulative = 8.12376e-11
GAMG:  Solving for p, Initial residual = 0.285806, Final residual = 0.0185095, No Iterations 3
time step continuity errors : sum local = 1.33311e-11, global = 2.32418e-13, cumulative = 8.14701e-11
GAMG:  Solving for p, Initial residual = 0.19239, Final residual = 3.85853e-07, No Iterations 17
time step continuity errors : sum local = 1.8125e-16, global = 8.64071e-18, cumulative = 8.14701e-11
ExecutionTime = 0.02 s  ClockTime = 0 s

Time = 0.04

Courant Number mean: 0.00447186 max: 0.00936018
Bad Mood
Bad Mood
smoothSolver:  Solving for Ux, Initial residual = 0.0115977, Final residual = 7.28964e-06, No Iterations 21
smoothSolver:  Solving for Uy, Initial residual = 0.786563, Final residual = 8.01195e-06, No Iterations 28
GAMG:  Solving for p, Initial residual = 0.891589, Final residual = 0.0859896, No Iterations 4
time step continuity errors : sum local = 2.17961e-10, global = 5.9453e-11, cumulative = 1.40923e-10
GAMG:  Solving for p, Initial residual = 0.587619, Final residual = 0.0312173, No Iterations 4
time step continuity errors : sum local = 9.7132e-11, global = -1.59716e-11, cumulative = 1.24952e-10
GAMG:  Solving for p, Initial residual = 0.334302, Final residual = 0.0287646, No Iterations 4
time step continuity errors : sum local = 3.82314e-11, global = -1.26231e-11, cumulative = 1.12328e-10
GAMG:  Solving for p, Initial residual = 0.279415, Final residual = 0.0177316, No Iterations 3
time step continuity errors : sum local = 1.26846e-11, global = -1.77485e-13, cumulative = 1.12151e-10
GAMG:  Solving for p, Initial residual = 0.19156, Final residual = 9.92982e-07, No Iterations 16
time step continuity errors : sum local = 4.59631e-16, global = -5.04584e-17, cumulative = 1.12151e-10
ExecutionTime = 0.02 s  ClockTime = 0 s

Time = 0.05

Courant Number mean: 0.00473326 max: 0.00943272
Bad Mood
Bad Mood
smoothSolver:  Solving for Ux, Initial residual = 0.00581514, Final residual = 7.39985e-06, No Iterations 19
smoothSolver:  Solving for Uy, Initial residual = 0.776588, Final residual = 8.35282e-06, No Iterations 28
GAMG:  Solving for p, Initial residual = 0.885656, Final residual = 0.0845331, No Iterations 4
time step continuity errors : sum local = 1.99163e-10, global = 5.27802e-11, cumulative = 1.64931e-10
GAMG:  Solving for p, Initial residual = 0.58989, Final residual = 0.0313147, No Iterations 4
time step continuity errors : sum local = 8.97679e-11, global = -1.47838e-11, cumulative = 1.50147e-10
GAMG:  Solving for p, Initial residual = 0.329381, Final residual = 0.0285528, No Iterations 4
time step continuity errors : sum local = 3.5653e-11, global = -1.17102e-11, cumulative = 1.38437e-10
GAMG:  Solving for p, Initial residual = 0.276749, Final residual = 0.0184076, No Iterations 3
time step continuity errors : sum local = 1.24057e-11, global = 4.57591e-13, cumulative = 1.38895e-10
GAMG:  Solving for p, Initial residual = 0.191614, Final residual = 9.73947e-07, No Iterations 16
time step continuity errors : sum local = 4.27736e-16, global = -4.82301e-17, cumulative = 1.38895e-10
ExecutionTime = 0.03 s  ClockTime = 0 s

Time = 0.06

Courant Number mean: 0.00486513 max: 0.00946659
Bad Mood
Bad Mood
smoothSolver:  Solving for Ux, Initial residual = 0.00293542, Final residual = 7.51618e-06, No Iterations 17
smoothSolver:  Solving for Uy, Initial residual = 0.761735, Final residual = 8.77699e-06, No Iterations 28
GAMG:  Solving for p, Initial residual = 0.881978, Final residual = 0.0839742, No Iterations 4
time step continuity errors : sum local = 1.81755e-10, global = 4.79562e-11, cumulative = 1.86851e-10
GAMG:  Solving for p, Initial residual = 0.58435, Final residual = 0.0309965, No Iterations 4
time step continuity errors : sum local = 8.20661e-11, global = -1.28864e-11, cumulative = 1.73964e-10
GAMG:  Solving for p, Initial residual = 0.324767, Final residual = 0.0277687, No Iterations 4
time step continuity errors : sum local = 3.22641e-11, global = -1.05554e-11, cumulative = 1.63409e-10
GAMG:  Solving for p, Initial residual = 0.272344, Final residual = 0.0177086, No Iterations 3
time step continuity errors : sum local = 1.13017e-11, global = 4.41762e-13, cumulative = 1.63851e-10
GAMG:  Solving for p, Initial residual = 0.190779, Final residual = 9.0878e-07, No Iterations 16
time step continuity errors : sum local = 3.78135e-16, global = -4.21761e-17, cumulative = 1.63851e-10
ExecutionTime = 0.03 s  ClockTime = 0 s

Time = 0.07

Courant Number mean: 0.00493174 max: 0.00948321
Bad Mood
Bad Mood
smoothSolver:  Solving for Ux, Initial residual = 0.00148512, Final residual = 7.6439e-06, No Iterations 15
smoothSolver:  Solving for Uy, Initial residual = 0.746663, Final residual = 9.23357e-06, No Iterations 28
GAMG:  Solving for p, Initial residual = 0.877261, Final residual = 0.0828766, No Iterations 4
time step continuity errors : sum local = 1.62792e-10, global = 4.25477e-11, cumulative = 2.06398e-10
GAMG:  Solving for p, Initial residual = 0.581816, Final residual = 0.0309047, No Iterations 4
time step continuity errors : sum local = 7.41985e-11, global = -1.12798e-11, cumulative = 1.95119e-10
GAMG:  Solving for p, Initial residual = 0.319326, Final residual = 0.0272301, No Iterations 4
time step continuity errors : sum local = 2.91105e-11, global = -9.4792e-12, cumulative = 1.85639e-10
GAMG:  Solving for p, Initial residual = 0.267939, Final residual = 0.0171941, No Iterations 3
time step continuity errors : sum local = 1.02303e-11, global = 4.32769e-13, cumulative = 1.86072e-10
GAMG:  Solving for p, Initial residual = 0.189002, Final residual = 8.61085e-07, No Iterations 16
time step continuity errors : sum local = 3.35258e-16, global = -3.64141e-17, cumulative = 1.86072e-10
ExecutionTime = 0.03 s  ClockTime = 0 s

Time = 0.08

Courant Number mean: 0.00496539 max: 0.00949151
Bad Mood
Bad Mood
smoothSolver:  Solving for Ux, Initial residual = 0.000752858, Final residual = 7.78803e-06, No Iterations 13
smoothSolver:  Solving for Uy, Initial residual = 0.728129, Final residual = 9.76838e-06, No Iterations 28
GAMG:  Solving for p, Initial residual = 0.872273, Final residual = 0.0816903, No Iterations 4
time step continuity errors : sum local = 1.43301e-10, global = 3.70175e-11, cumulative = 2.2309e-10
GAMG:  Solving for p, Initial residual = 0.578935, Final residual = 0.0309815, No Iterations 4
time step continuity errors : sum local = 6.63783e-11, global = -9.66961e-12, cumulative = 2.1342e-10
GAMG:  Solving for p, Initial residual = 0.313572, Final residual = 0.0267143, No Iterations 4
time step continuity errors : sum local = 2.58888e-11, global = -8.3686e-12, cumulative = 2.05051e-10
GAMG:  Solving for p, Initial residual = 0.263083, Final residual = 0.0167191, No Iterations 3
time step continuity errors : sum local = 9.15473e-12, global = 4.17979e-13, cumulative = 2.05469e-10
GAMG:  Solving for p, Initial residual = 0.186719, Final residual = 8.17951e-07, No Iterations 16
time step continuity errors : sum local = 2.94478e-16, global = -3.09725e-17, cumulative = 2.05469e-10
ExecutionTime = 0.04 s  ClockTime = 0 s

Time = 0.09

Courant Number mean: 0.0049824 max: 0.00949569
Bad Mood
Bad Mood
smoothSolver:  Solving for Ux, Initial residual = 0.000382924, Final residual = 7.96098e-06, No Iterations 11
smoothSolver:  Solving for Uy, Initial residual = 0.705432, Final residual = 7.25435e-06, No Iterations 29
GAMG:  Solving for p, Initial residual = 0.866051, Final residual = 0.0803665, No Iterations 4
time step continuity errors : sum local = 1.23385e-10, global = 3.13683e-11, cumulative = 2.36838e-10
GAMG:  Solving for p, Initial residual = 0.575775, Final residual = 0.0312182, No Iterations 4
time step continuity errors : sum local = 5.84503e-11, global = -8.07739e-12, cumulative = 2.2876e-10
GAMG:  Solving for p, Initial residual = 0.307531, Final residual = 0.0262194, No Iterations 4
time step continuity errors : sum local = 2.25765e-11, global = -7.22113e-12, cumulative = 2.21539e-10
GAMG:  Solving for p, Initial residual = 0.257353, Final residual = 0.0163368, No Iterations 3
time step continuity errors : sum local = 8.09133e-12, global = 3.96869e-13, cumulative = 2.21936e-10
GAMG:  Solving for p, Initial residual = 0.183761, Final residual = 7.79002e-07, No Iterations 16
time step continuity errors : sum local = 2.5538e-16, global = -2.5825e-17, cumulative = 2.21936e-10
ExecutionTime = 0.04 s  ClockTime = 0 s

Time = 0.1

Courant Number mean: 0.00499099 max: 0.00949779
Bad Mood
Bad Mood
smoothSolver:  Solving for Ux, Initial residual = 0.000196044, Final residual = 8.19031e-06, No Iterations 9
smoothSolver:  Solving for Uy, Initial residual = 0.67745, Final residual = 7.74368e-06, No Iterations 29
GAMG:  Solving for p, Initial residual = 0.858695, Final residual = 0.0788278, No Iterations 4
time step continuity errors : sum local = 1.03227e-10, global = 2.57105e-11, cumulative = 2.47646e-10
GAMG:  Solving for p, Initial residual = 0.57238, Final residual = 0.0317804, No Iterations 4
time step continuity errors : sum local = 5.06569e-11, global = -5.86828e-12, cumulative = 2.41778e-10
GAMG:  Solving for p, Initial residual = 0.306539, Final residual = 0.0280972, No Iterations 4
time step continuity errors : sum local = 2.12267e-11, global = -6.76611e-12, cumulative = 2.35012e-10
GAMG:  Solving for p, Initial residual = 0.249362, Final residual = 0.01531, No Iterations 3
time step continuity errors : sum local = 6.72438e-12, global = 3.38525e-13, cumulative = 2.35351e-10
GAMG:  Solving for p, Initial residual = 0.178948, Final residual = 7.35849e-07, No Iterations 16
time step continuity errors : sum local = 2.15712e-16, global = -2.14109e-17, cumulative = 2.35351e-10
ExecutionTime = 0.05 s  ClockTime = 0 s

Time = 0.11

Courant Number mean: 0.00499533 max: 0.00949886
Bad Mood
Bad Mood
smoothSolver:  Solving for Ux, Initial residual = 0.000101681, Final residual = 8.53452e-06, No Iterations 7
smoothSolver:  Solving for Uy, Initial residual = 0.642917, Final residual = 8.20102e-06, No Iterations 29
GAMG:  Solving for p, Initial residual = 0.849586, Final residual = 0.0770059, No Iterations 4
time step continuity errors : sum local = 8.32323e-11, global = 2.01073e-11, cumulative = 2.55458e-10
GAMG:  Solving for p, Initial residual = 0.567728, Final residual = 0.0320292, No Iterations 4
time step continuity errors : sum local = 4.20492e-11, global = -4.57425e-12, cumulative = 2.50884e-10
GAMG:  Solving for p, Initial residual = 0.301002, Final residual = 0.0276412, No Iterations 4
time step continuity errors : sum local = 1.7591e-11, global = -5.40803e-12, cumulative = 2.45476e-10
GAMG:  Solving for p, Initial residual = 0.240258, Final residual = 0.0151749, No Iterations 3
time step continuity errors : sum local = 5.75991e-12, global = 3.05611e-13, cumulative = 2.45781e-10
GAMG:  Solving for p, Initial residual = 0.171788, Final residual = 6.86052e-07, No Iterations 16
time step continuity errors : sum local = 1.76358e-16, global = -1.59849e-17, cumulative = 2.45781e-10
ExecutionTime = 0.05 s  ClockTime = 0 s

Time = 0.12

Courant Number mean: 0.00499752 max: 0.00949939
Bad Mood
Bad Mood
smoothSolver:  Solving for Ux, Initial residual = 5.41056e-05, Final residual = 9.12057e-06, No Iterations 5
smoothSolver:  Solving for Uy, Initial residual = 0.605346, Final residual = 8.82818e-06, No Iterations 29
GAMG:  Solving for p, Initial residual = 0.837302, Final residual = 0.0743717, No Iterations 4
time step continuity errors : sum local = 6.32831e-11, global = 1.49027e-11, cumulative = 2.60684e-10
GAMG:  Solving for p, Initial residual = 0.559526, Final residual = 0.0362648, No Iterations 4
time step continuity errors : sum local = 3.73944e-11, global = -6.18973e-13, cumulative = 2.60065e-10
GAMG:  Solving for p, Initial residual = 0.299681, Final residual = 0.0226715, No Iterations 5
time step continuity errors : sum local = 1.17771e-11, global = 2.34648e-13, cumulative = 2.603e-10
GAMG:  Solving for p, Initial residual = 0.186352, Final residual = 0.0141745, No Iterations 3
time step continuity errors : sum local = 4.4425e-12, global = 4.04946e-13, cumulative = 2.60704e-10
GAMG:  Solving for p, Initial residual = 0.172052, Final residual = 6.93529e-07, No Iterations 16
time step continuity errors : sum local = 1.56972e-16, global = -9.48043e-18, cumulative = 2.60704e-10
ExecutionTime = 0.06 s  ClockTime = 0 s

Time = 0.13

Courant Number mean: 0.00499861 max: 0.00949966
Bad Mood
Bad Mood
smoothSolver:  Solving for Ux, Initial residual = 3.02523e-05, Final residual = 7.2195e-06, No Iterations 4
smoothSolver:  Solving for Uy, Initial residual = 0.569544, Final residual = 9.29647e-06, No Iterations 29
GAMG:  Solving for p, Initial residual = 0.793552, Final residual = 0.0685771, No Iterations 4
time step continuity errors : sum local = 3.74589e-11, global = 8.32395e-12, cumulative = 2.69028e-10
GAMG:  Solving for p, Initial residual = 0.569119, Final residual = 0.0369691, No Iterations 4
time step continuity errors : sum local = 2.31025e-11, global = -2.94044e-13, cumulative = 2.68734e-10
GAMG:  Solving for p, Initial residual = 0.304654, Final residual = 0.0292441, No Iterations 4
time step continuity errors : sum local = 9.21879e-12, global = -2.1242e-12, cumulative = 2.6661e-10
GAMG:  Solving for p, Initial residual = 0.216251, Final residual = 0.0145138, No Iterations 3
time step continuity errors : sum local = 2.92927e-12, global = 2.19978e-13, cumulative = 2.6683e-10
GAMG:  Solving for p, Initial residual = 0.14431, Final residual = 5.46237e-07, No Iterations 16
time step continuity errors : sum local = 7.99474e-17, global = -6.5444e-18, cumulative = 2.6683e-10
ExecutionTime = 0.06 s  ClockTime = 0 s

Time = 0.14

Courant Number mean: 0.0049992 max: 0.0094998
Bad Mood
Bad Mood
smoothSolver:  Solving for Ux, Initial residual = 1.75793e-05, Final residual = 8.43715e-06, No Iterations 2
smoothSolver:  Solving for Uy, Initial residual = 0.537825, Final residual = 9.93972e-06, No Iterations 29
GAMG:  Solving for p, Initial residual = 0.79106, Final residual = 0.0661961, No Iterations 4
time step continuity errors : sum local = 2.45378e-11, global = 5.6487e-12, cumulative = 2.72479e-10
GAMG:  Solving for p, Initial residual = 0.531247, Final residual = 0.0282271, No Iterations 4
time step continuity errors : sum local = 1.25839e-11, global = -1.89483e-12, cumulative = 2.70584e-10
GAMG:  Solving for p, Initial residual = 0.249974, Final residual = 0.0228617, No Iterations 4
time step continuity errors : sum local = 5.56615e-12, global = -1.6245e-12, cumulative = 2.6896e-10
GAMG:  Solving for p, Initial residual = 0.183091, Final residual = 0.0115609, No Iterations 3
time step continuity errors : sum local = 1.94171e-12, global = 1.3041e-13, cumulative = 2.6909e-10
GAMG:  Solving for p, Initial residual = 0.128759, Final residual = 8.87866e-07, No Iterations 15
time step continuity errors : sum local = 1.10859e-16, global = 3.31494e-18, cumulative = 2.6909e-10
ExecutionTime = 0.06 s  ClockTime = 0 s

Time = 0.15

Courant Number mean: 0.00499947 max: 0.00949987
Bad Mood
Bad Mood
smoothSolver:  Solving for Ux, Initial residual = 1.15758e-05, Final residual = 7.88502e-06, No Iterations 1
smoothSolver:  Solving for Uy, Initial residual = 0.48662, Final residual = 7.10893e-06, No Iterations 30
GAMG:  Solving for p, Initial residual = 0.700382, Final residual = 0.0535313, No Iterations 4
time step continuity errors : sum local = 1.16702e-11, global = 2.45295e-12, cumulative = 2.71543e-10
GAMG:  Solving for p, Initial residual = 0.50969, Final residual = 0.0402862, No Iterations 4
time step continuity errors : sum local = 9.92502e-12, global = -9.46825e-13, cumulative = 2.70596e-10
GAMG:  Solving for p, Initial residual = 0.235857, Final residual = 0.0213849, No Iterations 5
time step continuity errors : sum local = 3.16785e-12, global = 1.09598e-13, cumulative = 2.70706e-10
GAMG:  Solving for p, Initial residual = 0.115266, Final residual = 0.00805683, No Iterations 3
time step continuity errors : sum local = 8.93049e-13, global = 4.36898e-14, cumulative = 2.70749e-10
GAMG:  Solving for p, Initial residual = 0.108712, Final residual = 8.48967e-07, No Iterations 15
time step continuity errors : sum local = 7.69243e-17, global = 3.54304e-19, cumulative = 2.70749e-10
ExecutionTime = 0.06 s  ClockTime = 0 s

Time = 0.16

Courant Number mean: 0.00499962 max: 0.00949991
Bad Mood
Bad Mood
smoothSolver:  Solving for Ux, Initial residual = 8.34905e-06, Final residual = 8.34905e-06, No Iterations 0
smoothSolver:  Solving for Uy, Initial residual = 0.429957, Final residual = 9.70376e-06, No Iterations 29
GAMG:  Solving for p, Initial residual = 0.387754, Final residual = 0.0282331, No Iterations 3
time step continuity errors : sum local = 2.67127e-12, global = -3.81808e-14, cumulative = 2.70711e-10
GAMG:  Solving for p, Initial residual = 0.354926, Final residual = 0.0145344, No Iterations 3
time step continuity errors : sum local = 1.33502e-12, global = 5.63791e-14, cumulative = 2.70768e-10
GAMG:  Solving for p, Initial residual = 0.0882706, Final residual = 0.00564857, No Iterations 3
time step continuity errors : sum local = 4.07329e-13, global = -2.77433e-14, cumulative = 2.7074e-10
GAMG:  Solving for p, Initial residual = 0.0528781, Final residual = 0.00347295, No Iterations 4
time step continuity errors : sum local = 2.26831e-13, global = -6.07724e-14, cumulative = 2.70679e-10
GAMG:  Solving for p, Initial residual = 0.0524243, Final residual = 6.56629e-07, No Iterations 15
time step continuity errors : sum local = 3.92319e-17, global = -2.63018e-18, cumulative = 2.70679e-10
ExecutionTime = 0.07 s  ClockTime = 0 s

Time = 0.17

Courant Number mean: 0.00499969 max: 0.00949992
Bad Mood
Bad Mood
smoothSolver:  Solving for Ux, Initial residual = 6.78315e-06, Final residual = 6.78315e-06, No Iterations 0
smoothSolver:  Solving for Uy, Initial residual = 0.277553, Final residual = 9.11287e-06, No Iterations 28
GAMG:  Solving for p, Initial residual = 0.215002, Final residual = 0.0112551, No Iterations 3
time step continuity errors : sum local = 6.8844e-13, global = -1.41345e-14, cumulative = 2.70665e-10
GAMG:  Solving for p, Initial residual = 0.199962, Final residual = 0.00850267, No Iterations 3
time step continuity errors : sum local = 5.13825e-13, global = 7.03024e-15, cumulative = 2.70672e-10
GAMG:  Solving for p, Initial residual = 0.055072, Final residual = 0.00335541, No Iterations 4
time step continuity errors : sum local = 1.78435e-13, global = -2.88456e-14, cumulative = 2.70643e-10
GAMG:  Solving for p, Initial residual = 0.0459059, Final residual = 0.00265888, No Iterations 4
time step continuity errors : sum local = 1.31681e-13, global = -3.04863e-14, cumulative = 2.70613e-10
GAMG:  Solving for p, Initial residual = 0.0454917, Final residual = 8.34947e-07, No Iterations 16
time step continuity errors : sum local = 3.86716e-17, global = 8.8942e-18, cumulative = 2.70613e-10
ExecutionTime = 0.07 s  ClockTime = 0 s

Time = 0.18

Courant Number mean: 0.00499975 max: 0.00949994
Bad Mood
Bad Mood
smoothSolver:  Solving for Ux, Initial residual = 5.48999e-06, Final residual = 5.48999e-06, No Iterations 0
smoothSolver:  Solving for Uy, Initial residual = 0.225858, Final residual = 7.75009e-06, No Iterations 27
GAMG:  Solving for p, Initial residual = 0.138987, Final residual = 0.00920128, No Iterations 3
time step continuity errors : sum local = 4.26172e-13, global = 3.14199e-15, cumulative = 2.70616e-10
GAMG:  Solving for p, Initial residual = 0.120695, Final residual = 0.00427747, No Iterations 3
time step continuity errors : sum local = 2.00266e-13, global = -1.36168e-14, cumulative = 2.70602e-10
GAMG:  Solving for p, Initial residual = 0.0406446, Final residual = 0.0021535, No Iterations 4
time step continuity errors : sum local = 9.53726e-14, global = -2.2576e-14, cumulative = 2.7058e-10
GAMG:  Solving for p, Initial residual = 0.0373321, Final residual = 0.00210388, No Iterations 4
time step continuity errors : sum local = 8.81964e-14, global = -2.08709e-14, cumulative = 2.70559e-10
GAMG:  Solving for p, Initial residual = 0.0383656, Final residual = 5.77149e-07, No Iterations 16
time step continuity errors : sum local = 2.28695e-17, global = 5.2528e-18, cumulative = 2.70559e-10
ExecutionTime = 0.08 s  ClockTime = 0 s

Time = 0.19

Courant Number mean: 0.0049998 max: 0.00949995
Bad Mood
Bad Mood
smoothSolver:  Solving for Ux, Initial residual = 4.44185e-06, Final residual = 4.44185e-06, No Iterations 0
smoothSolver:  Solving for Uy, Initial residual = 0.189824, Final residual = 7.76059e-06, No Iterations 25
GAMG:  Solving for p, Initial residual = 0.103131, Final residual = 0.00894191, No Iterations 3
time step continuity errors : sum local = 3.47277e-13, global = 2.81186e-14, cumulative = 2.70587e-10
GAMG:  Solving for p, Initial residual = 0.0814204, Final residual = 0.00667942, No Iterations 2
time step continuity errors : sum local = 2.60076e-13, global = -5.79967e-15, cumulative = 2.70581e-10
GAMG:  Solving for p, Initial residual = 0.0376871, Final residual = 0.00187042, No Iterations 4
time step continuity errors : sum local = 7.0002e-14, global = -1.72929e-14, cumulative = 2.70564e-10
GAMG:  Solving for p, Initial residual = 0.0339407, Final residual = 0.00196457, No Iterations 4
time step continuity errors : sum local = 6.92693e-14, global = -2.54045e-14, cumulative = 2.70538e-10
GAMG:  Solving for p, Initial residual = 0.0364203, Final residual = 9.66306e-07, No Iterations 16
time step continuity errors : sum local = 3.19674e-17, global = 6.73355e-18, cumulative = 2.70538e-10
ExecutionTime = 0.08 s  ClockTime = 0 s

Time = 0.2

Courant Number mean: 0.00499984 max: 0.00949996
Bad Mood
Bad Mood
smoothSolver:  Solving for Ux, Initial residual = 3.59352e-06, Final residual = 3.59352e-06, No Iterations 0
smoothSolver:  Solving for Uy, Initial residual = 0.164774, Final residual = 9.06431e-06, No Iterations 22
GAMG:  Solving for p, Initial residual = 0.0884074, Final residual = 0.00767876, No Iterations 3
time step continuity errors : sum local = 2.49239e-13, global = 2.31004e-14, cumulative = 2.70561e-10
GAMG:  Solving for p, Initial residual = 0.0674591, Final residual = 0.00402502, No Iterations 2
time step continuity errors : sum local = 1.30531e-13, global = -2.5527e-17, cumulative = 2.70561e-10
GAMG:  Solving for p, Initial residual = 0.0329406, Final residual = 0.00189546, No Iterations 4
time step continuity errors : sum local = 5.88689e-14, global = -1.77474e-14, cumulative = 2.70544e-10
GAMG:  Solving for p, Initial residual = 0.033872, Final residual = 0.00159131, No Iterations 4
time step continuity errors : sum local = 4.65015e-14, global = -1.3908e-14, cumulative = 2.7053e-10
GAMG:  Solving for p, Initial residual = 0.0357097, Final residual = 8.12739e-07, No Iterations 16
time step continuity errors : sum local = 2.21349e-17, global = 4.68245e-18, cumulative = 2.7053e-10
ExecutionTime = 0.09 s  ClockTime = 0 s

Time = 0.21

Courant Number mean: 0.00499987 max: 0.00949997
Bad Mood
Bad Mood
smoothSolver:  Solving for Ux, Initial residual = 2.90719e-06, Final residual = 2.90719e-06, No Iterations 0
smoothSolver:  Solving for Uy, Initial residual = 0.152393, Final residual = 7.05103e-06, No Iterations 20
GAMG:  Solving for p, Initial residual = 0.0821023, Final residual = 0.00746781, No Iterations 3
time step continuity errors : sum local = 2.00071e-13, global = 1.75943e-14, cumulative = 2.70547e-10
GAMG:  Solving for p, Initial residual = 0.0621035, Final residual = 0.0036619, No Iterations 2
time step continuity errors : sum local = 9.77977e-14, global = -3.11335e-15, cumulative = 2.70544e-10
GAMG:  Solving for p, Initial residual = 0.0319615, Final residual = 0.00153876, No Iterations 4
time step continuity errors : sum local = 3.92902e-14, global = -1.02203e-14, cumulative = 2.70534e-10
GAMG:  Solving for p, Initial residual = 0.0336355, Final residual = 0.0015332, No Iterations 4
time step continuity errors : sum local = 3.67645e-14, global = -1.08163e-14, cumulative = 2.70523e-10
GAMG:  Solving for p, Initial residual = 0.0361215, Final residual = 3.55812e-07, No Iterations 17
time step continuity errors : sum local = 8.048e-18, global = -5.45087e-19, cumulative = 2.70523e-10
ExecutionTime = 0.09 s  ClockTime = 0 s

Time = 0.22

Courant Number mean: 0.00499989 max: 0.00949997
Bad Mood
Bad Mood
smoothSolver:  Solving for Ux, Initial residual = 2.35194e-06, Final residual = 2.35194e-06, No Iterations 0
smoothSolver:  Solving for Uy, Initial residual = 0.14748, Final residual = 8.72098e-06, No Iterations 19
GAMG:  Solving for p, Initial residual = 0.0790359, Final residual = 0.00733321, No Iterations 3
time step continuity errors : sum local = 1.60952e-13, global = 1.41598e-14, cumulative = 2.70537e-10
GAMG:  Solving for p, Initial residual = 0.0604531, Final residual = 0.00359398, No Iterations 2
time step continuity errors : sum local = 7.85184e-14, global = -3.35285e-15, cumulative = 2.70534e-10
GAMG:  Solving for p, Initial residual = 0.0320588, Final residual = 0.00182689, No Iterations 4
time step continuity errors : sum local = 3.81149e-14, global = -6.68891e-15, cumulative = 2.70527e-10
GAMG:  Solving for p, Initial residual = 0.0346343, Final residual = 0.00156893, No Iterations 4
time step continuity errors : sum local = 3.07399e-14, global = -7.73629e-15, cumulative = 2.7052e-10
GAMG:  Solving for p, Initial residual = 0.0361765, Final residual = 8.96504e-07, No Iterations 16
time step continuity errors : sum local = 1.64214e-17, global = 3.24412e-18, cumulative = 2.7052e-10
ExecutionTime = 0.1 s  ClockTime = 0 s

Time = 0.23

Courant Number mean: 0.00499991 max: 0.00949998
Bad Mood
Bad Mood
smoothSolver:  Solving for Ux, Initial residual = 1.90274e-06, Final residual = 1.90274e-06, No Iterations 0
smoothSolver:  Solving for Uy, Initial residual = 0.147079, Final residual = 7.5003e-06, No Iterations 20
GAMG:  Solving for p, Initial residual = 0.078617, Final residual = 0.00629556, No Iterations 3
time step continuity errors : sum local = 1.12665e-13, global = 2.50023e-15, cumulative = 2.70522e-10
GAMG:  Solving for p, Initial residual = 0.0606143, Final residual = 0.00370319, No Iterations 2
time step continuity errors : sum local = 6.59495e-14, global = -3.48493e-15, cumulative = 2.70519e-10
GAMG:  Solving for p, Initial residual = 0.0316352, Final residual = 0.00166819, No Iterations 4
time step continuity errors : sum local = 2.83085e-14, global = 2.42483e-15, cumulative = 2.70521e-10
GAMG:  Solving for p, Initial residual = 0.0340144, Final residual = 0.00176351, No Iterations 4
time step continuity errors : sum local = 2.80999e-14, global = -6.31701e-15, cumulative = 2.70515e-10
GAMG:  Solving for p, Initial residual = 0.036703, Final residual = 9.6977e-07, No Iterations 16
time step continuity errors : sum local = 1.4487e-17, global = 2.79142e-18, cumulative = 2.70515e-10
ExecutionTime = 0.1 s  ClockTime = 0 s

Time = 0.24

Courant Number mean: 0.00499993 max: 0.00949998
Bad Mood
Bad Mood
smoothSolver:  Solving for Ux, Initial residual = 1.53933e-06, Final residual = 1.53933e-06, No Iterations 0
smoothSolver:  Solving for Uy, Initial residual = 0.147628, Final residual = 8.22437e-06, No Iterations 20
GAMG:  Solving for p, Initial residual = 0.0786874, Final residual = 0.00626492, No Iterations 3
time step continuity errors : sum local = 9.11579e-14, global = 2.14596e-15, cumulative = 2.70517e-10
GAMG:  Solving for p, Initial residual = 0.0605503, Final residual = 0.00373844, No Iterations 2
time step continuity errors : sum local = 5.40973e-14, global = -2.83556e-15, cumulative = 2.70514e-10
GAMG:  Solving for p, Initial residual = 0.0318395, Final residual = 0.00165176, No Iterations 4
time step continuity errors : sum local = 2.27661e-14, global = 2.11403e-15, cumulative = 2.70516e-10
GAMG:  Solving for p, Initial residual = 0.0341575, Final residual = 0.00174686, No Iterations 4
time step continuity errors : sum local = 2.26009e-14, global = -4.96166e-15, cumulative = 2.70511e-10
GAMG:  Solving for p, Initial residual = 0.0367841, Final residual = 8.8624e-07, No Iterations 16
time step continuity errors : sum local = 1.07233e-17, global = 2.11922e-18, cumulative = 2.70511e-10
ExecutionTime = 0.1 s  ClockTime = 0 s

Time = 0.25

Courant Number mean: 0.00499994 max: 0.00949999
Bad Mood
Bad Mood
smoothSolver:  Solving for Ux, Initial residual = 1.24533e-06, Final residual = 1.24533e-06, No Iterations 0
smoothSolver:  Solving for Uy, Initial residual = 0.14786, Final residual = 8.57952e-06, No Iterations 20
GAMG:  Solving for p, Initial residual = 0.078666, Final residual = 0.0064771, No Iterations 3
time step continuity errors : sum local = 7.64823e-14, global = -4.76476e-15, cumulative = 2.70506e-10
GAMG:  Solving for p, Initial residual = 0.0604823, Final residual = 0.00362591, No Iterations 2
time step continuity errors : sum local = 4.25471e-14, global = -2.26647e-15, cumulative = 2.70504e-10
GAMG:  Solving for p, Initial residual = 0.0324988, Final residual = 0.00163438, No Iterations 4
time step continuity errors : sum local = 1.82873e-14, global = -4.08567e-15, cumulative = 2.705e-10
GAMG:  Solving for p, Initial residual = 0.034768, Final residual = 0.00193151, No Iterations 4
time step continuity errors : sum local = 2.02676e-14, global = 4.44474e-16, cumulative = 2.705e-10
GAMG:  Solving for p, Initial residual = 0.0368936, Final residual = 8.56522e-07, No Iterations 16
time step continuity errors : sum local = 8.43051e-18, global = 1.66854e-18, cumulative = 2.705e-10
ExecutionTime = 0.11 s  ClockTime = 0 s

Time = 0.26

Courant Number mean: 0.00499995 max: 0.00949999
Bad Mood
Bad Mood
smoothSolver:  Solving for Ux, Initial residual = 1.00748e-06, Final residual = 1.00748e-06, No Iterations 0
smoothSolver:  Solving for Uy, Initial residual = 0.148018, Final residual = 8.75303e-06, No Iterations 20
GAMG:  Solving for p, Initial residual = 0.0787054, Final residual = 0.00641942, No Iterations 3
time step continuity errors : sum local = 6.14395e-14, global = -3.807e-15, cumulative = 2.70497e-10
GAMG:  Solving for p, Initial residual = 0.0605512, Final residual = 0.00356812, No Iterations 2
time step continuity errors : sum local = 3.39303e-14, global = -1.95328e-15, cumulative = 2.70495e-10
GAMG:  Solving for p, Initial residual = 0.0326777, Final residual = 0.00202703, No Iterations 4
time step continuity errors : sum local = 1.83775e-14, global = -5.20836e-16, cumulative = 2.70494e-10
GAMG:  Solving for p, Initial residual = 0.0351185, Final residual = 0.00173922, No Iterations 4
time step continuity errors : sum local = 1.47908e-14, global = -3.25805e-15, cumulative = 2.70491e-10
GAMG:  Solving for p, Initial residual = 0.0367865, Final residual = 9.1322e-07, No Iterations 16
time step continuity errors : sum local = 7.36793e-18, global = 1.34685e-18, cumulative = 2.70491e-10
ExecutionTime = 0.11 s  ClockTime = 0 s

Time = 0.27

Courant Number mean: 0.00499996 max: 0.00949999
Bad Mood
Bad Mood
smoothSolver:  Solving for Ux, Initial residual = 8.15064e-07, Final residual = 8.15064e-07, No Iterations 0
smoothSolver:  Solving for Uy, Initial residual = 0.148387, Final residual = 9.04096e-06, No Iterations 20
GAMG:  Solving for p, Initial residual = 0.0787313, Final residual = 0.00650115, No Iterations 3
time step continuity errors : sum local = 5.03958e-14, global = -3.10019e-15, cumulative = 2.70488e-10
GAMG:  Solving for p, Initial residual = 0.0606147, Final residual = 0.00363308, No Iterations 2
time step continuity errors : sum local = 2.79765e-14, global = -1.58453e-15, cumulative = 2.70486e-10
GAMG:  Solving for p, Initial residual = 0.0326912, Final residual = 0.0020144, No Iterations 4
time step continuity errors : sum local = 1.47887e-14, global = -4.61403e-16, cumulative = 2.70486e-10
GAMG:  Solving for p, Initial residual = 0.0351517, Final residual = 0.00210868, No Iterations 4
time step continuity errors : sum local = 1.45205e-14, global = -4.81952e-16, cumulative = 2.70485e-10
GAMG:  Solving for p, Initial residual = 0.0371485, Final residual = 8.37127e-07, No Iterations 16
time step continuity errors : sum local = 5.47681e-18, global = 1.07004e-18, cumulative = 2.70485e-10
ExecutionTime = 0.12 s  ClockTime = 0 s

Time = 0.28

Courant Number mean: 0.00499997 max: 0.00949999
Bad Mood
Bad Mood
smoothSolver:  Solving for Ux, Initial residual = 6.59394e-07, Final residual = 6.59394e-07, No Iterations 0
smoothSolver:  Solving for Uy, Initial residual = 0.148644, Final residual = 9.04522e-06, No Iterations 20
GAMG:  Solving for p, Initial residual = 0.0789098, Final residual = 0.00648965, No Iterations 3
time step continuity errors : sum local = 4.0729e-14, global = -2.53323e-15, cumulative = 2.70483e-10
GAMG:  Solving for p, Initial residual = 0.0606681, Final residual = 0.0036075, No Iterations 2
time step continuity errors : sum local = 2.24899e-14, global = -1.32528e-15, cumulative = 2.70481e-10
GAMG:  Solving for p, Initial residual = 0.0328163, Final residual = 0.00201387, No Iterations 4
time step continuity errors : sum local = 1.19688e-14, global = -3.58147e-16, cumulative = 2.70481e-10
GAMG:  Solving for p, Initial residual = 0.0351621, Final residual = 0.00210883, No Iterations 4
time step continuity errors : sum local = 1.17547e-14, global = -3.98412e-16, cumulative = 2.70481e-10
GAMG:  Solving for p, Initial residual = 0.037163, Final residual = 8.17723e-07, No Iterations 16
time step continuity errors : sum local = 4.31183e-18, global = 7.73526e-19, cumulative = 2.70481e-10
ExecutionTime = 0.12 s  ClockTime = 0 s

Time = 0.29

Courant Number mean: 0.00499998 max: 0.00949999
Bad Mood
Bad Mood
smoothSolver:  Solving for Ux, Initial residual = 5.33456e-07, Final residual = 5.33456e-07, No Iterations 0
smoothSolver:  Solving for Uy, Initial residual = 0.148693, Final residual = 9.07819e-06, No Iterations 20
GAMG:  Solving for p, Initial residual = 0.078864, Final residual = 0.00650937, No Iterations 3
time step continuity errors : sum local = 3.30664e-14, global = -2.06489e-15, cumulative = 2.70479e-10
GAMG:  Solving for p, Initial residual = 0.060732, Final residual = 0.00362996, No Iterations 2
time step continuity errors : sum local = 1.83156e-14, global = -1.07606e-15, cumulative = 2.70478e-10
GAMG:  Solving for p, Initial residual = 0.0328147, Final residual = 0.00200994, No Iterations 4
time step continuity errors : sum local = 9.66781e-15, global = -2.9131e-16, cumulative = 2.70477e-10
GAMG:  Solving for p, Initial residual = 0.0351757, Final residual = 0.00210664, No Iterations 4
time step continuity errors : sum local = 9.50312e-15, global = -3.2366e-16, cumulative = 2.70477e-10
GAMG:  Solving for p, Initial residual = 0.0371733, Final residual = 8.36679e-07, No Iterations 16
time step continuity errors : sum local = 3.61503e-18, global = 7.0414e-19, cumulative = 2.70477e-10
ExecutionTime = 0.12 s  ClockTime = 0 s

Time = 0.3

Courant Number mean: 0.00499998 max: 0.0095
Bad Mood
Bad Mood
smoothSolver:  Solving for Ux, Initial residual = 4.31571e-07, Final residual = 4.31571e-07, No Iterations 0
smoothSolver:  Solving for Uy, Initial residual = 0.148735, Final residual = 9.09503e-06, No Iterations 20
GAMG:  Solving for p, Initial residual = 0.0789035, Final residual = 0.00649841, No Iterations 3
time step continuity errors : sum local = 2.67143e-14, global = -1.6625e-15, cumulative = 2.70475e-10
GAMG:  Solving for p, Initial residual = 0.0607131, Final residual = 0.00361884, No Iterations 2
time step continuity errors : sum local = 1.47761e-14, global = -8.77192e-16, cumulative = 2.70474e-10
GAMG:  Solving for p, Initial residual = 0.0328517, Final residual = 0.00200788, No Iterations 4
time step continuity errors : sum local = 7.8151e-15, global = -2.38625e-16, cumulative = 2.70474e-10
GAMG:  Solving for p, Initial residual = 0.0351823, Final residual = 0.00210554, No Iterations 4
time step continuity errors : sum local = 7.6858e-15, global = -2.62869e-16, cumulative = 2.70474e-10
GAMG:  Solving for p, Initial residual = 0.03718, Final residual = 8.26045e-07, No Iterations 16
time step continuity errors : sum local = 2.79619e-18, global = 6.07472e-19, cumulative = 2.70474e-10
ExecutionTime = 0.13 s  ClockTime = 0 s

Time = 0.31

Courant Number mean: 0.00499998 max: 0.0095
Bad Mood
Bad Mood
smoothSolver:  Solving for Ux, Initial residual = 3.49145e-07, Final residual = 3.49145e-07, No Iterations 0
smoothSolver:  Solving for Uy, Initial residual = 0.148762, Final residual = 9.10205e-06, No Iterations 20
GAMG:  Solving for p, Initial residual = 0.0788807, Final residual = 0.00650792, No Iterations 3
time step continuity errors : sum local = 2.16479e-14, global = -1.34969e-15, cumulative = 2.70473e-10
GAMG:  Solving for p, Initial residual = 0.0607425, Final residual = 0.00363019, No Iterations 2
time step continuity errors : sum local = 1.19936e-14, global = -7.099e-16, cumulative = 2.70472e-10
GAMG:  Solving for p, Initial residual = 0.0328483, Final residual = 0.00200648, No Iterations 4
time step continuity errors : sum local = 6.31927e-15, global = -1.9353e-16, cumulative = 2.70472e-10
GAMG:  Solving for p, Initial residual = 0.0351879, Final residual = 0.00210463, No Iterations 4
time step continuity errors : sum local = 6.21612e-15, global = -2.13159e-16, cumulative = 2.70471e-10
GAMG:  Solving for p, Initial residual = 0.0371841, Final residual = 8.35796e-07, No Iterations 16
time step continuity errors : sum local = 2.38589e-18, global = 4.61215e-19, cumulative = 2.70471e-10
ExecutionTime = 0.13 s  ClockTime = 0 s

Time = 0.32

Courant Number mean: 0.00499999 max: 0.0095
Bad Mood
Bad Mood
smoothSolver:  Solving for Ux, Initial residual = 2.82461e-07, Final residual = 2.82461e-07, No Iterations 0
smoothSolver:  Solving for Uy, Initial residual = 0.148782, Final residual = 9.10587e-06, No Iterations 20
GAMG:  Solving for p, Initial residual = 0.0789011, Final residual = 0.00650203, No Iterations 3
time step continuity errors : sum local = 1.74997e-14, global = -1.08901e-15, cumulative = 2.7047e-10
GAMG:  Solving for p, Initial residual = 0.0607319, Final residual = 0.00362654, No Iterations 2
time step continuity errors : sum local = 9.69423e-15, global = -5.76205e-16, cumulative = 2.7047e-10
GAMG:  Solving for p, Initial residual = 0.0328663, Final residual = 0.00200579, No Iterations 4
time step continuity errors : sum local = 5.111e-15, global = -1.5755e-16, cumulative = 2.7047e-10
GAMG:  Solving for p, Initial residual = 0.0351905, Final residual = 0.00210419, No Iterations 4
time step continuity errors : sum local = 5.02833e-15, global = -1.72846e-16, cumulative = 2.70469e-10
GAMG:  Solving for p, Initial residual = 0.0371869, Final residual = 8.30525e-07, No Iterations 16
time step continuity errors : sum local = 1.89694e-18, global = 3.43825e-19, cumulative = 2.70469e-10
ExecutionTime = 0.14 s  ClockTime = 0 s

Time = 0.33

Courant Number mean: 0.00499999 max: 0.0095
Bad Mood
Bad Mood
smoothSolver:  Solving for Ux, Initial residual = 2.28514e-07, Final residual = 2.28514e-07, No Iterations 0
smoothSolver:  Solving for Uy, Initial residual = 0.148793, Final residual = 9.10698e-06, No Iterations 20
GAMG:  Solving for p, Initial residual = 0.0788895, Final residual = 0.00650674, No Iterations 3
time step continuity errors : sum local = 1.41688e-14, global = -8.82453e-16, cumulative = 2.70469e-10
GAMG:  Solving for p, Initial residual = 0.0607455, Final residual = 0.00363238, No Iterations 2
time step continuity errors : sum local = 7.85586e-15, global = -4.66064e-16, cumulative = 2.70468e-10
GAMG:  Solving for p, Initial residual = 0.0328635, Final residual = 0.00200526, No Iterations 4
time step continuity errors : sum local = 4.13399e-15, global = -1.27628e-16, cumulative = 2.70468e-10
GAMG:  Solving for p, Initial residual = 0.0351928, Final residual = 0.0021038, No Iterations 4
time step continuity errors : sum local = 4.0674e-15, global = -1.40069e-16, cumulative = 2.70468e-10
GAMG:  Solving for p, Initial residual = 0.0371884, Final residual = 8.35499e-07, No Iterations 16
time step continuity errors : sum local = 1.7308e-18, global = 2.60886e-19, cumulative = 2.70468e-10
ExecutionTime = 0.14 s  ClockTime = 0 s

Time = 0.34

Courant Number mean: 0.00499999 max: 0.0095
Bad Mood
Bad Mood
smoothSolver:  Solving for Ux, Initial residual = 1.8487e-07, Final residual = 1.8487e-07, No Iterations 0
smoothSolver:  Solving for Uy, Initial residual = 0.148803, Final residual = 9.10819e-06, No Iterations 20
GAMG:  Solving for p, Initial residual = 0.0789, Final residual = 0.0065037, No Iterations 3
time step continuity errors : sum local = 1.14579e-14, global = -7.12919e-16, cumulative = 2.70467e-10
GAMG:  Solving for p, Initial residual = 0.0607396, Final residual = 0.00363113, No Iterations 2
time step continuity errors : sum local = 6.35359e-15, global = -3.77593e-16, cumulative = 2.70467e-10
GAMG:  Solving for p, Initial residual = 0.0328725, Final residual = 0.00200503, No Iterations 4
time step continuity errors : sum local = 3.3443e-15, global = -1.03571e-16, cumulative = 2.70467e-10
GAMG:  Solving for p, Initial residual = 0.0351938, Final residual = 0.00210362, No Iterations 4
time step continuity errors : sum local = 3.29035e-15, global = -1.13465e-16, cumulative = 2.70467e-10
GAMG:  Solving for p, Initial residual = 0.0371895, Final residual = 8.32989e-07, No Iterations 16
time step continuity errors : sum local = 1.35516e-18, global = 2.6011e-19, cumulative = 2.70467e-10
ExecutionTime = 0.14 s  ClockTime = 0 s

Time = 0.35

Courant Number mean: 0.00499999 max: 0.0095
Bad Mood
Bad Mood
smoothSolver:  Solving for Ux, Initial residual = 1.49561e-07, Final residual = 1.49561e-07, No Iterations 0
smoothSolver:  Solving for Uy, Initial residual = 0.148807, Final residual = 9.10793e-06, No Iterations 20
GAMG:  Solving for p, Initial residual = 0.0788941, Final residual = 0.00650594, No Iterations 3
time step continuity errors : sum local = 9.27301e-15, global = -5.77221e-16, cumulative = 2.70466e-10
GAMG:  Solving for p, Initial residual = 0.0607456, Final residual = 0.00363429, No Iterations 2
time step continuity errors : sum local = 5.14474e-15, global = -3.05319e-16, cumulative = 2.70466e-10
GAMG:  Solving for p, Initial residual = 0.0328708, Final residual = 0.00200485, No Iterations 4
time step continuity errors : sum local = 2.70546e-15, global = -8.39397e-17, cumulative = 2.70466e-10
GAMG:  Solving for p, Initial residual = 0.0351946, Final residual = 0.00210341, No Iterations 4
time step continuity errors : sum local = 2.66187e-15, global = -9.18001e-17, cumulative = 2.70465e-10
GAMG:  Solving for p, Initial residual = 0.0371903, Final residual = 8.35565e-07, No Iterations 16
time step continuity errors : sum local = 1.10665e-18, global = 1.96432e-19, cumulative = 2.70465e-10
ExecutionTime = 0.15 s  ClockTime = 0 s

Time = 0.36

Courant Number mean: 0.00499999 max: 0.0095
Bad Mood
Bad Mood
smoothSolver:  Solving for Ux, Initial residual = 1.20997e-07, Final residual = 1.20997e-07, No Iterations 0
smoothSolver:  Solving for Uy, Initial residual = 0.148809, Final residual = 9.10858e-06, No Iterations 20
GAMG:  Solving for p, Initial residual = 0.078899, Final residual = 0.00650432, No Iterations 3
time step continuity errors : sum local = 7.50017e-15, global = -4.66574e-16, cumulative = 2.70465e-10
GAMG:  Solving for p, Initial residual = 0.0607426, Final residual = 0.00363385, No Iterations 2
time step continuity errors : sum local = 4.16157e-15, global = -2.47148e-16, cumulative = 2.70465e-10
GAMG:  Solving for p, Initial residual = 0.0328753, Final residual = 0.00200478, No Iterations 4
time step continuity errors : sum local = 2.18865e-15, global = -6.79932e-17, cumulative = 2.70465e-10
GAMG:  Solving for p, Initial residual = 0.0351949, Final residual = 0.00210334, No Iterations 4
time step continuity errors : sum local = 2.15338e-15, global = -7.43594e-17, cumulative = 2.70465e-10
GAMG:  Solving for p, Initial residual = 0.0371908, Final residual = 8.34319e-07, No Iterations 16
time step continuity errors : sum local = 8.76959e-19, global = 1.98477e-19, cumulative = 2.70465e-10
ExecutionTime = 0.15 s  ClockTime = 0 s

Time = 0.37

Courant Number mean: 0.005 max: 0.0095
Bad Mood
Bad Mood
smoothSolver:  Solving for Ux, Initial residual = 9.78873e-08, Final residual = 9.78873e-08, No Iterations 0
smoothSolver:  Solving for Uy, Initial residual = 0.148811, Final residual = 9.10822e-06, No Iterations 20
GAMG:  Solving for p, Initial residual = 0.0788962, Final residual = 0.00650549, No Iterations 3
time step continuity errors : sum local = 6.06879e-15, global = -3.77686e-16, cumulative = 2.70464e-10
GAMG:  Solving for p, Initial residual = 0.0607453, Final residual = 0.00363568, No Iterations 2
time step continuity errors : sum local = 3.36859e-15, global = -1.99901e-16, cumulative = 2.70464e-10
GAMG:  Solving for p, Initial residual = 0.0328746, Final residual = 0.00200473, No Iterations 4
time step continuity errors : sum local = 1.77068e-15, global = -5.50781e-17, cumulative = 2.70464e-10
GAMG:  Solving for p, Initial residual = 0.0351953, Final residual = 0.00210325, No Iterations 4
time step continuity errors : sum local = 1.74203e-15, global = -6.02348e-17, cumulative = 2.70464e-10
GAMG:  Solving for p, Initial residual = 0.0371911, Final residual = 8.35618e-07, No Iterations 16
time step continuity errors : sum local = 7.44041e-19, global = 1.14066e-19, cumulative = 2.70464e-10
ExecutionTime = 0.16 s  ClockTime = 1 s

Time = 0.38

Courant Number mean: 0.005 max: 0.0095
Bad Mood
Bad Mood
smoothSolver:  Solving for Ux, Initial residual = 7.91917e-08, Final residual = 7.91917e-08, No Iterations 0
smoothSolver:  Solving for Uy, Initial residual = 0.148813, Final residual = 9.10758e-06, No Iterations 20
GAMG:  Solving for p, Initial residual = 0.078899, Final residual = 0.00650462, No Iterations 3
time step continuity errors : sum local = 4.90915e-15, global = -3.05373e-16, cumulative = 2.70464e-10
GAMG:  Solving for p, Initial residual = 0.0607437, Final residual = 0.00363558, No Iterations 2
time step continuity errors : sum local = 2.72513e-15, global = -1.6181e-16, cumulative = 2.70463e-10
GAMG:  Solving for p, Initial residual = 0.0328765, Final residual = 0.00200473, No Iterations 4
time step continuity errors : sum local = 1.43247e-15, global = -4.46029e-17, cumulative = 2.70463e-10
GAMG:  Solving for p, Initial residual = 0.0351953, Final residual = 0.00210322, No Iterations 4
time step continuity errors : sum local = 1.40931e-15, global = -4.86898e-17, cumulative = 2.70463e-10
GAMG:  Solving for p, Initial residual = 0.0371912, Final residual = 8.35105e-07, No Iterations 16
time step continuity errors : sum local = 7.4668e-19, global = 1.17677e-19, cumulative = 2.70463e-10
ExecutionTime = 0.16 s  ClockTime = 1 s

Time = 0.39

Courant Number mean: 0.005 max: 0.0095
Bad Mood
Bad Mood
smoothSolver:  Solving for Ux, Initial residual = 6.40668e-08, Final residual = 6.40668e-08, No Iterations 0
smoothSolver:  Solving for Uy, Initial residual = 0.148815, Final residual = 9.1106e-06, No Iterations 20
GAMG:  Solving for p, Initial residual = 0.0788979, Final residual = 0.00650513, No Iterations 3
time step continuity errors : sum local = 3.97183e-15, global = -2.47091e-16, cumulative = 2.70463e-10
GAMG:  Solving for p, Initial residual = 0.0607451, Final residual = 0.00363663, No Iterations 2
time step continuity errors : sum local = 2.20535e-15, global = -1.30883e-16, cumulative = 2.70463e-10
GAMG:  Solving for p, Initial residual = 0.0328762, Final residual = 0.00200473, No Iterations 4
time step continuity errors : sum local = 1.15889e-15, global = -3.61158e-17, cumulative = 2.70463e-10
GAMG:  Solving for p, Initial residual = 0.0351958, Final residual = 0.00210317, No Iterations 4
time step continuity errors : sum local = 1.14018e-15, global = -3.94419e-17, cumulative = 2.70463e-10
GAMG:  Solving for p, Initial residual = 0.037191, Final residual = 8.35723e-07, No Iterations 16
time step continuity errors : sum local = 6.55674e-19, global = 4.94221e-20, cumulative = 2.70463e-10
ExecutionTime = 0.16 s  ClockTime = 1 s

Time = 0.4

Courant Number mean: 0.005 max: 0.0095
Bad Mood
Bad Mood
smoothSolver:  Solving for Ux, Initial residual = 5.18307e-08, Final residual = 5.18307e-08, No Iterations 0
smoothSolver:  Solving for Uy, Initial residual = 0.148816, Final residual = 9.10698e-06, No Iterations 20
GAMG:  Solving for p, Initial residual = 0.0788993, Final residual = 0.0065047, No Iterations 3
time step continuity errors : sum local = 3.21304e-15, global = -1.99871e-16, cumulative = 2.70463e-10
GAMG:  Solving for p, Initial residual = 0.0607443, Final residual = 0.00363677, No Iterations 2
time step continuity errors : sum local = 1.78412e-15, global = -1.05899e-16, cumulative = 2.70463e-10
GAMG:  Solving for p, Initial residual = 0.0328776, Final residual = 0.00200471, No Iterations 4
time step continuity errors : sum local = 9.37432e-16, global = -2.92458e-17, cumulative = 2.70463e-10
GAMG:  Solving for p, Initial residual = 0.0351956, Final residual = 0.00210311, No Iterations 4
time step continuity errors : sum local = 9.22364e-16, global = -3.19593e-17, cumulative = 2.70463e-10
GAMG:  Solving for p, Initial residual = 0.0371915, Final residual = 8.35705e-07, No Iterations 16
time step continuity errors : sum local = 5.32209e-19, global = 4.61696e-20, cumulative = 2.70463e-10
ExecutionTime = 0.17 s  ClockTime = 1 s

Time = 0.41

Courant Number mean: 0.005 max: 0.0095
numProcs 2 nprocs 2
Using all 2 for LAMMPS simulation
LAMMPS (14 May 2016)
Created triclinic box = (0 0 0) to (20 20 20) with tilt (0 0 0)
  1 by 1 by 2 MPI processor grid
Read molecule polymer:
  15 atoms with 2 types
  14 bonds with 3 types
  0 angles with 0 types
  0 dihedrals with 0 types
  0 impropers with 0 types
Created 24000 atoms
Created 0 atoms
24000 atoms in group water
0 atoms in group polymer
Setting atom values ...
  24000 settings made for type
WARNING: Resetting reneighboring criteria during minimization (../min.cpp:168)
WARNING: Use special bonds = 0,1,1 with bond style fene (../bond_fene.cpp:188)
Neighbor list info ...
  1 neighbor list requests
  update every 1 steps, delay 0 steps, check yes
  max neighbors/atom: 2000, page size: 100000
  master list distance cutoff = 2
  ghost atom cutoff = 5
  binsize = 1, bins = 20 20 20
Setting up cg style minimization ...
  Unit style: lj
Memory usage per processor = 24.0367 Mbytes
Step Temp E_pair E_mol TotEng Press 
       0            0    7.8441595            0    7.8441595    18.844752 
      36            0    4.2162452            0    4.2162452    16.613297 
Loop time of 2.77371 on 2 procs for 36 steps with 24000 atoms

99.6% CPU use with 2 MPI tasks x no OpenMP threads

Minimization stats:
  Stopping criterion = energy tolerance
  Energy initial, next-to-last, final = 
         7.84415951736      4.21627648972       4.2162452417
  Force two-norm initial, final = 6804.29 4029.97
  Force max component initial, final = 159.709 92.4734
  Final line search alpha, max atom move = 1.50171e-05 0.00138868
  Iterations, force evaluations = 36 122

MPI task timing breakdown:
Section |  min time  |  avg time  |  max time  |%varavg| %total
---------------------------------------------------------------
Pair    | 2.2292     | 2.2531     | 2.2771     |   1.6 | 81.23
Bond    | 0.00015044 | 0.00017869 | 0.00020695 |   0.2 |  0.01
Neigh   | 0.12285    | 0.12286    | 0.12288    |   0.0 |  4.43
Comm    | 0.32338    | 0.34714    | 0.3709     |   4.0 | 12.52
Output  | 0          | 0          | 0          |   0.0 |  0.00
Modify  | 0          | 0          | 0          |   0.0 |  0.00
Other   |            | 0.05041    |            |       |  1.82

Nlocal:    12000 ave 12120 max 11880 min
Histogram: 1 0 0 0 0 0 0 0 0 1
Nghost:    41964 ave 42084 max 41844 min
Histogram: 1 0 0 0 0 0 0 0 0 1
Neighs:    600304 ave 609048 max 591559 min
Histogram: 1 0 0 0 0 0 0 0 0 1

Total # of neighbors = 1200607
Ave neighs/atom = 50.0253
Ave special neighs/atom = 0
Neighbor list builds = 2
Dangerous builds not checked
WARNING: Use special bonds = 0,1,1 with bond style fene (../bond_fene.cpp:188)
Neighbor list info ...
  1 neighbor list requests
  update every 6 steps, delay 0 steps, check no
  max neighbors/atom: 2000, page size: 100000
  master list distance cutoff = 2
  ghost atom cutoff = 5
  binsize = 1, bins = 20 20 20
Setting up Verlet run ...
  Unit style  : lj
  Current step: 36
  Time step   : 0.01
Memory usage per processor = 19.052 Mbytes
Step Temp E_pair E_mol TotEng Press 
      36            0    4.2162452            0    4.2162452    16.711674 
Loop time of 2.6226e-06 on 2 procs for 0 steps with 24000 atoms

0.0% CPU use with 2 MPI tasks x no OpenMP threads

MPI task timing breakdown:
Section |  min time  |  avg time  |  max time  |%varavg| %total
---------------------------------------------------------------
Pair    | 0          | 0          | 0          |   0.0 |  0.00
Bond    | 0          | 0          | 0          |   0.0 |  0.00
Neigh   | 0          | 0          | 0          |   0.0 |  0.00
Comm    | 0          | 0          | 0          |   0.0 |  0.00
Output  | 0          | 0          | 0          |   0.0 |  0.00
Modify  | 0          | 0          | 0          |   0.0 |  0.00
Other   |            | 2.623e-06  |            |       |100.00

Nlocal:    12000 ave 12101 max 11899 min
Histogram: 1 0 0 0 0 0 0 0 0 1
Nghost:    41971 ave 42072 max 41870 min
Histogram: 1 0 0 0 0 0 0 0 0 1
Neighs:    599470 ave 607121 max 591820 min
Histogram: 1 0 0 0 0 0 0 0 0 1

Total # of neighbors = 1198941
Ave neighs/atom = 49.9559
Ave special neighs/atom = 0
Neighbor list builds = 0
Dangerous builds not checked
WARNING: Use special bonds = 0,1,1 with bond style fene (../bond_fene.cpp:188)
Setting up Verlet run ...
  Unit style  : lj
  Current step: 36
  Time step   : 0.005
Memory usage per processor = 19.0672 Mbytes
Step Temp Press Pxy visc vave 
      36   0.44450588    17.950247   0.14274372   -1.4274372            0 
Loop time of 2.38419e-06 on 2 procs for 0 steps with 24000 atoms

0.0% CPU use with 2 MPI tasks x no OpenMP threads

MPI task timing breakdown:
Section |  min time  |  avg time  |  max time  |%varavg| %total
---------------------------------------------------------------
Pair    | 0          | 0          | 0          |   0.0 |  0.00
Bond    | 0          | 0          | 0          |   0.0 |  0.00
Neigh   | 0          | 0          | 0          |   0.0 |  0.00
Comm    | 0          | 0          | 0          |   0.0 |  0.00
Output  | 0          | 0          | 0          |   0.0 |  0.00
Modify  | 0          | 0          | 0          |   0.0 |  0.00
Other   |            | 2.384e-06  |            |       |100.00

Nlocal:    12000 ave 12101 max 11899 min
Histogram: 1 0 0 0 0 0 0 0 0 1
Nghost:    41971 ave 42072 max 41870 min
Histogram: 1 0 0 0 0 0 0 0 0 1
Neighs:    599470 ave 607121 max 591820 min
Histogram: 1 0 0 0 0 0 0 0 0 1

Total # of neighbors = 1198941
Ave neighs/atom = 49.9559
Ave special neighs/atom = 0
Neighbor list builds = 0
Dangerous builds not checked
0000Total wall time: 0:00:03
numProcs 2 nprocs 2
Using all 2 for LAMMPS simulation
LAMMPS (14 May 2016)
Created triclinic box = (0 0 0) to (20 20 20) with tilt (0 0 0)
  1 by 1 by 2 MPI processor grid
Read molecule polymer:
  15 atoms with 2 types
  14 bonds with 3 types
  0 angles with 0 types
  0 dihedrals with 0 types
  0 impropers with 0 types
Created 24000 atoms
Created 0 atoms
24000 atoms in group water
0 atoms in group polymer
Setting atom values ...
  24000 settings made for type
WARNING: Resetting reneighboring criteria during minimization (../min.cpp:168)
WARNING: Use special bonds = 0,1,1 with bond style fene (../bond_fene.cpp:188)
Neighbor list info ...
  1 neighbor list requests
  update every 1 steps, delay 0 steps, check yes
  max neighbors/atom: 2000, page size: 100000
  master list distance cutoff = 2
  ghost atom cutoff = 5
  binsize = 1, bins = 20 20 20
Setting up cg style minimization ...
  Unit style: lj
Memory usage per processor = 24.0367 Mbytes
Step Temp E_pair E_mol TotEng Press 
       0            0    7.8441595            0    7.8441595    18.844752 
      36            0    4.2162452            0    4.2162452    16.613297 
Loop time of 3.14026 on 2 procs for 36 steps with 24000 atoms

99.6% CPU use with 2 MPI tasks x no OpenMP threads

Minimization stats:
  Stopping criterion = energy tolerance
  Energy initial, next-to-last, final = 
         7.84415951736      4.21627648972       4.2162452417
  Force two-norm initial, final = 6804.29 4029.97
  Force max component initial, final = 159.709 92.4734
  Final line search alpha, max atom move = 1.50171e-05 0.00138868
  Iterations, force evaluations = 36 122

MPI task timing breakdown:
Section |  min time  |  avg time  |  max time  |%varavg| %total
---------------------------------------------------------------
Pair    | 2.4824     | 2.5051     | 2.5279     |   1.4 | 79.77
Bond    | 0.00017118 | 0.00018978 | 0.00020838 |   0.1 |  0.01
Neigh   | 0.13173    | 0.13173    | 0.13173    |   0.0 |  4.19
Comm    | 0.42534    | 0.44813    | 0.47092    |   3.4 | 14.27
Output  | 0          | 0          | 0          |   0.0 |  0.00
Modify  | 0          | 0          | 0          |   0.0 |  0.00
Other   |            | 0.05509    |            |       |  1.75

Nlocal:    12000 ave 12120 max 11880 min
Histogram: 1 0 0 0 0 0 0 0 0 1
Nghost:    41964 ave 42084 max 41844 min
Histogram: 1 0 0 0 0 0 0 0 0 1
Neighs:    600304 ave 609048 max 591559 min
Histogram: 1 0 0 0 0 0 0 0 0 1

Total # of neighbors = 1200607
Ave neighs/atom = 50.0253
Ave special neighs/atom = 0
Neighbor list builds = 2
Dangerous builds not checked
WARNING: Use special bonds = 0,1,1 with bond style fene (../bond_fene.cpp:188)
Neighbor list info ...
  1 neighbor list requests
  update every 6 steps, delay 0 steps, check no
  max neighbors/atom: 2000, page size: 100000
  master list distance cutoff = 2
  ghost atom cutoff = 5
  binsize = 1, bins = 20 20 20
Setting up Verlet run ...
  Unit style  : lj
  Current step: 36
  Time step   : 0.01
Memory usage per processor = 19.052 Mbytes
Step Temp E_pair E_mol TotEng Press 
      36            0    4.2162452            0    4.2162452    16.711674 
Loop time of 2.38419e-06 on 2 procs for 0 steps with 24000 atoms

0.0% CPU use with 2 MPI tasks x no OpenMP threads

MPI task timing breakdown:
Section |  min time  |  avg time  |  max time  |%varavg| %total
---------------------------------------------------------------
Pair    | 0          | 0          | 0          |   0.0 |  0.00
Bond    | 0          | 0          | 0          |   0.0 |  0.00
Neigh   | 0          | 0          | 0          |   0.0 |  0.00
Comm    | 0          | 0          | 0          |   0.0 |  0.00
Output  | 0          | 0          | 0          |   0.0 |  0.00
Modify  | 0          | 0          | 0          |   0.0 |  0.00
Other   |            | 2.384e-06  |            |       |100.00

Nlocal:    12000 ave 12101 max 11899 min
Histogram: 1 0 0 0 0 0 0 0 0 1
Nghost:    41971 ave 42072 max 41870 min
Histogram: 1 0 0 0 0 0 0 0 0 1
Neighs:    599470 ave 607121 max 591820 min
Histogram: 1 0 0 0 0 0 0 0 0 1

Total # of neighbors = 1198941
Ave neighs/atom = 49.9559
Ave special neighs/atom = 0
Neighbor list builds = 0
Dangerous builds not checked
WARNING: Use special bonds = 0,1,1 with bond style fene (../bond_fene.cpp:188)
Setting up Verlet run ...
  Unit style  : lj
  Current step: 36
  Time step   : 0.005
Memory usage per processor = 19.0672 Mbytes
Step Temp Press Pxy visc vave 
      36   0.44450588    17.950247   0.14274372   -1.4274372            0 
Loop time of 1.90735e-06 on 2 procs for 0 steps with 24000 atoms

0.0% CPU use with 2 MPI tasks x no OpenMP threads

MPI task timing breakdown:
Section |  min time  |  avg time  |  max time  |%varavg| %total
---------------------------------------------------------------
Pair    | 0          | 0          | 0          |   0.0 |  0.00
Bond    | 0          | 0          | 0          |   0.0 |  0.00
Neigh   | 0          | 0          | 0          |   0.0 |  0.00
Comm    | 0          | 0          | 0          |   0.0 |  0.00
Output  | 0          | 0          | 0          |   0.0 |  0.00
Modify  | 0          | 0          | 0          |   0.0 |  0.00
Other   |            | 1.907e-06  |            |       |100.00

Nlocal:    12000 ave 12101 max 11899 min
Histogram: 1 0 0 0 0 0 0 0 0 1
Nghost:    41971 ave 42072 max 41870 min
Histogram: 1 0 0 0 0 0 0 0 0 1
Neighs:    599470 ave 607121 max 591820 min
Histogram: 1 0 0 0 0 0 0 0 0 1

Total # of neighbors = 1198941
Ave neighs/atom = 49.9559
Ave special neighs/atom = 0
Neighbor list builds = 0
Dangerous builds not checked
0000Total wall time: 0:00:03
numProcs 2 nprocs 2
Using all 2 for LAMMPS simulation
LAMMPS (14 May 2016)
Created triclinic box = (0 0 0) to (20 20 20) with tilt (0 0 0)
  1 by 1 by 2 MPI processor grid
Read molecule polymer:
  15 atoms with 2 types
  14 bonds with 3 types
  0 angles with 0 types
  0 dihedrals with 0 types
  0 impropers with 0 types
Created 24000 atoms
Created 0 atoms
24000 atoms in group water
0 atoms in group polymer
Setting atom values ...
  24000 settings made for type
WARNING: Resetting reneighboring criteria during minimization (../min.cpp:168)
WARNING: Use special bonds = 0,1,1 with bond style fene (../bond_fene.cpp:188)
Neighbor list info ...
  1 neighbor list requests
  update every 1 steps, delay 0 steps, check yes
  max neighbors/atom: 2000, page size: 100000
  master list distance cutoff = 2
  ghost atom cutoff = 5
  binsize = 1, bins = 20 20 20
Setting up cg style minimization ...
  Unit style: lj
Memory usage per processor = 24.0367 Mbytes
Step Temp E_pair E_mol TotEng Press 
       0            0    7.8441595            0    7.8441595    18.844752 
      36            0    4.2162452            0    4.2162452    16.613297 
Loop time of 2.73327 on 2 procs for 36 steps with 24000 atoms

99.6% CPU use with 2 MPI tasks x no OpenMP threads

Minimization stats:
  Stopping criterion = energy tolerance
  Energy initial, next-to-last, final = 
         7.84415951736      4.21627648972       4.2162452417
  Force two-norm initial, final = 6804.29 4029.97
  Force max component initial, final = 159.709 92.4734
  Final line search alpha, max atom move = 1.50171e-05 0.00138868
  Iterations, force evaluations = 36 122

MPI task timing breakdown:
Section |  min time  |  avg time  |  max time  |%varavg| %total
---------------------------------------------------------------
Pair    | 1.9354     | 2.1078     | 2.2802     |  11.9 | 77.12
Bond    | 0.00010633 | 0.00013936 | 0.00017238 |   0.3 |  0.01
Neigh   | 0.107      | 0.10704    | 0.10708    |   0.0 |  3.92
Comm    | 0.30042    | 0.47235    | 0.64428    |  25.0 | 17.28
Output  | 0          | 0          | 0          |   0.0 |  0.00
Modify  | 0          | 0          | 0          |   0.0 |  0.00
Other   |            | 0.04593    |            |       |  1.68

Nlocal:    12000 ave 12120 max 11880 min
Histogram: 1 0 0 0 0 0 0 0 0 1
Nghost:    41964 ave 42084 max 41844 min
Histogram: 1 0 0 0 0 0 0 0 0 1
Neighs:    600304 ave 609048 max 591559 min
Histogram: 1 0 0 0 0 0 0 0 0 1

Total # of neighbors = 1200607
Ave neighs/atom = 50.0253
Ave special neighs/atom = 0
Neighbor list builds = 2
Dangerous builds not checked
WARNING: Use special bonds = 0,1,1 with bond style fene (../bond_fene.cpp:188)
Neighbor list info ...
  1 neighbor list requests
  update every 6 steps, delay 0 steps, check no
  max neighbors/atom: 2000, page size: 100000
  master list distance cutoff = 2
  ghost atom cutoff = 5
  binsize = 1, bins = 20 20 20
Setting up Verlet run ...
  Unit style  : lj
  Current step: 36
  Time step   : 0.01
Memory usage per processor = 19.052 Mbytes
Step Temp E_pair E_mol TotEng Press 
      36            0    4.2162452            0    4.2162452    16.711674 
Loop time of 1.43051e-06 on 2 procs for 0 steps with 24000 atoms

0.0% CPU use with 2 MPI tasks x no OpenMP threads

MPI task timing breakdown:
Section |  min time  |  avg time  |  max time  |%varavg| %total
---------------------------------------------------------------
Pair    | 0          | 0          | 0          |   0.0 |  0.00
Bond    | 0          | 0          | 0          |   0.0 |  0.00
Neigh   | 0          | 0          | 0          |   0.0 |  0.00
Comm    | 0          | 0          | 0          |   0.0 |  0.00
Output  | 0          | 0          | 0          |   0.0 |  0.00
Modify  | 0          | 0          | 0          |   0.0 |  0.00
Other   |            | 1.431e-06  |            |       |100.00

Nlocal:    12000 ave 12101 max 11899 min
Histogram: 1 0 0 0 0 0 0 0 0 1
Nghost:    41971 ave 42072 max 41870 min
Histogram: 1 0 0 0 0 0 0 0 0 1
Neighs:    599470 ave 607121 max 591820 min
Histogram: 1 0 0 0 0 0 0 0 0 1

Total # of neighbors = 1198941
Ave neighs/atom = 49.9559
Ave special neighs/atom = 0
Neighbor list builds = 0
Dangerous builds not checked
WARNING: Use special bonds = 0,1,1 with bond style fene (../bond_fene.cpp:188)
Setting up Verlet run ...
  Unit style  : lj
  Current step: 36
  Time step   : 0.005
Memory usage per processor = 19.0672 Mbytes
Step Temp Press Pxy visc vave 
      36   0.44450588    17.950247   0.14274372   -1.4274372            0 
Loop time of 1.54972e-06 on 2 procs for 0 steps with 24000 atoms

0.0% CPU use with 2 MPI tasks x no OpenMP threads

MPI task timing breakdown:
Section |  min time  |  avg time  |  max time  |%varavg| %total
---------------------------------------------------------------
Pair    | 0          | 0          | 0          |   0.0 |  0.00
Bond    | 0          | 0          | 0          |   0.0 |  0.00
Neigh   | 0          | 0          | 0          |   0.0 |  0.00
Comm    | 0          | 0          | 0          |   0.0 |  0.00
Output  | 0          | 0          | 0          |   0.0 |  0.00
Modify  | 0          | 0          | 0          |   0.0 |  0.00
Other   |            | 1.55e-06   |            |       |100.00

Nlocal:    12000 ave 12101 max 11899 min
Histogram: 1 0 0 0 0 0 0 0 0 1
Nghost:    41971 ave 42072 max 41870 min
Histogram: 1 0 0 0 0 0 0 0 0 1
Neighs:    599470 ave 607121 max 591820 min
Histogram: 1 0 0 0 0 0 0 0 0 1

Total # of neighbors = 1198941
Ave neighs/atom = 49.9559
Ave special neighs/atom = 0
Neighbor list builds = 0
Dangerous builds not checked
0000Total wall time: 0:00:02
numProcs 2 nprocs 2
Using all 2 for LAMMPS simulation
LAMMPS (14 May 2016)
Created triclinic box = (0 0 0) to (20 20 20) with tilt (0 0 0)
  1 by 1 by 2 MPI processor grid
Read molecule polymer:
  15 atoms with 2 types
  14 bonds with 3 types
  0 angles with 0 types
  0 dihedrals with 0 types
  0 impropers with 0 types
Created 24000 atoms
Created 0 atoms
24000 atoms in group water
0 atoms in group polymer
Setting atom values ...
  24000 settings made for type
WARNING: Resetting reneighboring criteria during minimization (../min.cpp:168)
WARNING: Use special bonds = 0,1,1 with bond style fene (../bond_fene.cpp:188)
Neighbor list info ...
  1 neighbor list requests
  update every 1 steps, delay 0 steps, check yes
  max neighbors/atom: 2000, page size: 100000
  master list distance cutoff = 2
  ghost atom cutoff = 5
  binsize = 1, bins = 20 20 20
Setting up cg style minimization ...
  Unit style: lj
Memory usage per processor = 24.0367 Mbytes
Step Temp E_pair E_mol TotEng Press 
       0            0    7.8441595            0    7.8441595    18.844752 
      36            0    4.2162452            0    4.2162452    16.613297 
Loop time of 2.38113 on 2 procs for 36 steps with 24000 atoms

100.0% CPU use with 2 MPI tasks x no OpenMP threads

Minimization stats:
  Stopping criterion = energy tolerance
  Energy initial, next-to-last, final = 
         7.84415951736      4.21627648972       4.2162452417
  Force two-norm initial, final = 6804.29 4029.97
  Force max component initial, final = 159.709 92.4734
  Final line search alpha, max atom move = 1.50171e-05 0.00138868
  Iterations, force evaluations = 36 122

MPI task timing breakdown:
Section |  min time  |  avg time  |  max time  |%varavg| %total
---------------------------------------------------------------
Pair    | 1.9105     | 1.9273     | 1.944      |   1.2 | 80.94
Bond    | 0.00010562 | 0.00012648 | 0.00014734 |   0.2 |  0.01
Neigh   | 0.112      | 0.11201    | 0.11202    |   0.0 |  4.70
Comm    | 0.28254    | 0.2995     | 0.31647    |   3.1 | 12.58
Output  | 0          | 0          | 0          |   0.0 |  0.00
Modify  | 0          | 0          | 0          |   0.0 |  0.00
Other   |            | 0.04223    |            |       |  1.77

Nlocal:    12000 ave 12120 max 11880 min
Histogram: 1 0 0 0 0 0 0 0 0 1
Nghost:    41964 ave 42084 max 41844 min
Histogram: 1 0 0 0 0 0 0 0 0 1
Neighs:    600304 ave 609048 max 591559 min
Histogram: 1 0 0 0 0 0 0 0 0 1

Total # of neighbors = 1200607
Ave neighs/atom = 50.0253
Ave special neighs/atom = 0
Neighbor list builds = 2
Dangerous builds not checked
WARNING: Use special bonds = 0,1,1 with bond style fene (../bond_fene.cpp:188)
Neighbor list info ...
  1 neighbor list requests
  update every 6 steps, delay 0 steps, check no
  max neighbors/atom: 2000, page size: 100000
  master list distance cutoff = 2
  ghost atom cutoff = 5
  binsize = 1, bins = 20 20 20
Setting up Verlet run ...
  Unit style  : lj
  Current step: 36
  Time step   : 0.01
Memory usage per processor = 19.052 Mbytes
Step Temp E_pair E_mol TotEng Press 
      36            0    4.2162452            0    4.2162452    16.711674 
Loop time of 1.54972e-06 on 2 procs for 0 steps with 24000 atoms

0.0% CPU use with 2 MPI tasks x no OpenMP threads

MPI task timing breakdown:
Section |  min time  |  avg time  |  max time  |%varavg| %total
---------------------------------------------------------------
Pair    | 0          | 0          | 0          |   0.0 |  0.00
Bond    | 0          | 0          | 0          |   0.0 |  0.00
Neigh   | 0          | 0          | 0          |   0.0 |  0.00
Comm    | 0          | 0          | 0          |   0.0 |  0.00
Output  | 0          | 0          | 0          |   0.0 |  0.00
Modify  | 0          | 0          | 0          |   0.0 |  0.00
Other   |            | 1.55e-06   |            |       |100.00

Nlocal:    12000 ave 12101 max 11899 min
Histogram: 1 0 0 0 0 0 0 0 0 1
Nghost:    41971 ave 42072 max 41870 min
Histogram: 1 0 0 0 0 0 0 0 0 1
Neighs:    599470 ave 607121 max 591820 min
Histogram: 1 0 0 0 0 0 0 0 0 1

Total # of neighbors = 1198941
Ave neighs/atom = 49.9559
Ave special neighs/atom = 0
Neighbor list builds = 0
Dangerous builds not checked
WARNING: Use special bonds = 0,1,1 with bond style fene (../bond_fene.cpp:188)
Setting up Verlet run ...
  Unit style  : lj
  Current step: 36
  Time step   : 0.005
Memory usage per processor = 19.0672 Mbytes
Step Temp Press Pxy visc vave 
      36   0.44450588    17.950247   0.14274372   -1.4274372            0 
Loop time of 1.43051e-06 on 2 procs for 0 steps with 24000 atoms

0.0% CPU use with 2 MPI tasks x no OpenMP threads

MPI task timing breakdown:
Section |  min time  |  avg time  |  max time  |%varavg| %total
---------------------------------------------------------------
Pair    | 0          | 0          | 0          |   0.0 |  0.00
Bond    | 0          | 0          | 0          |   0.0 |  0.00
Neigh   | 0          | 0          | 0          |   0.0 |  0.00
Comm    | 0          | 0          | 0          |   0.0 |  0.00
Output  | 0          | 0          | 0          |   0.0 |  0.00
Modify  | 0          | 0          | 0          |   0.0 |  0.00
Other   |            | 1.431e-06  |            |       |100.00

Nlocal:    12000 ave 12101 max 11899 min
Histogram: 1 0 0 0 0 0 0 0 0 1
Nghost:    41971 ave 42072 max 41870 min
Histogram: 1 0 0 0 0 0 0 0 0 1
Neighs:    599470 ave 607121 max 591820 min
Histogram: 1 0 0 0 0 0 0 0 0 1

Total # of neighbors = 1198941
Ave neighs/atom = 49.9559
Ave special neighs/atom = 0
Neighbor list builds = 0
Dangerous builds not checked
0000Total wall time: 0:00:02
numProcs 2 nprocs 2
Using all 2 for LAMMPS simulation
LAMMPS (14 May 2016)
Created triclinic box = (0 0 0) to (20 20 20) with tilt (0 0 0)
  1 by 1 by 2 MPI processor grid
Read molecule polymer:
  15 atoms with 2 types
  14 bonds with 3 types
  0 angles with 0 types
  0 dihedrals with 0 types
  0 impropers with 0 types
Created 24000 atoms
Created 0 atoms
24000 atoms in group water
0 atoms in group polymer
Setting atom values ...
  24000 settings made for type
WARNING: Resetting reneighboring criteria during minimization (../min.cpp:168)
WARNING: Use special bonds = 0,1,1 with bond style fene (../bond_fene.cpp:188)
Neighbor list info ...
  1 neighbor list requests
  update every 1 steps, delay 0 steps, check yes
  max neighbors/atom: 2000, page size: 100000
  master list distance cutoff = 2
  ghost atom cutoff = 5
  binsize = 1, bins = 20 20 20
Setting up cg style minimization ...
  Unit style: lj
Memory usage per processor = 24.0367 Mbytes
Step Temp E_pair E_mol TotEng Press 
       0            0    7.8441595            0    7.8441595    18.844752 
      36            0    4.2162452            0    4.2162452    16.613297 
Loop time of 2.29675 on 2 procs for 36 steps with 24000 atoms

99.8% CPU use with 2 MPI tasks x no OpenMP threads

Minimization stats:
  Stopping criterion = energy tolerance
  Energy initial, next-to-last, final = 
         7.84415951736      4.21627648972       4.2162452417
  Force two-norm initial, final = 6804.29 4029.97
  Force max component initial, final = 159.709 92.4734
  Final line search alpha, max atom move = 1.50171e-05 0.00138868
  Iterations, force evaluations = 36 122

MPI task timing breakdown:
Section |  min time  |  avg time  |  max time  |%varavg| %total
---------------------------------------------------------------
Pair    | 1.8085     | 1.8334     | 1.8584     |   1.8 | 79.83
Bond    | 0.00010204 | 0.00013316 | 0.00016427 |   0.3 |  0.01
Neigh   | 0.10653    | 0.10653    | 0.10654    |   0.0 |  4.64
Comm    | 0.2903     | 0.31528    | 0.34027    |   4.4 | 13.73
Output  | 0          | 0          | 0          |   0.0 |  0.00
Modify  | 0          | 0          | 0          |   0.0 |  0.00
Other   |            | 0.04139    |            |       |  1.80

Nlocal:    12000 ave 12120 max 11880 min
Histogram: 1 0 0 0 0 0 0 0 0 1
Nghost:    41964 ave 42084 max 41844 min
Histogram: 1 0 0 0 0 0 0 0 0 1
Neighs:    600304 ave 609048 max 591559 min
Histogram: 1 0 0 0 0 0 0 0 0 1

Total # of neighbors = 1200607
Ave neighs/atom = 50.0253
Ave special neighs/atom = 0
Neighbor list builds = 2
Dangerous builds not checked
WARNING: Use special bonds = 0,1,1 with bond style fene (../bond_fene.cpp:188)
Neighbor list info ...
  1 neighbor list requests
  update every 6 steps, delay 0 steps, check no
  max neighbors/atom: 2000, page size: 100000
[...]
Section |  min time  |  avg time  |  max time  |%varavg| %total
---------------------------------------------------------------
Pair    | 0          | 0          | 0          |   0.0 |  0.00
Bond    | 0          | 0          | 0          |   0.0 |  0.00
Neigh   | 0          | 0          | 0          |   0.0 |  0.00
Comm    | 0          | 0          | 0          |   0.0 |  0.00
Output  | 0          | 0          | 0          |   0.0 |  0.00
Modify  | 0          | 0          | 0          |   0.0 |  0.00
Other   |            | 1.192e-06  |            |       |100.00

Nlocal:    12000 ave 12101 max 11899 min
Histogram: 1 0 0 0 0 0 0 0 0 1
Nghost:    41971 ave 42072 max 41870 min
Histogram: 1 0 0 0 0 0 0 0 0 1
Neighs:    599470 ave 607121 max 591820 min
Histogram: 1 0 0 0 0 0 0 0 0 1

Total # of neighbors = 1198941
Ave neighs/atom = 49.9559
Ave special neighs/atom = 0
Neighbor list builds = 0
Dangerous builds not checked
0000Total wall time: 0:00:02
numProcs 2 nprocs 2
Using all 2 for LAMMPS simulation
LAMMPS (14 May 2016)
Created triclinic box = (0 0 0) to (20 20 20) with tilt (0 0 0)
  1 by 1 by 2 MPI processor grid
Read molecule polymer:
  15 atoms with 2 types
  14 bonds with 3 types
  0 angles with 0 types
  0 dihedrals with 0 types
  0 impropers with 0 types
Created 24000 atoms
Created 0 atoms
24000 atoms in group water
0 atoms in group polymer
Setting atom values ...
  24000 settings made for type
WARNING: Resetting reneighboring criteria during minimization (../min.cpp:168)
WARNING: Use special bonds = 0,1,1 with bond style fene (../bond_fene.cpp:188)
Neighbor list info ...
  1 neighbor list requests
  update every 1 steps, delay 0 steps, check yes
  max neighbors/atom: 2000, page size: 100000
  master list distance cutoff = 2
  ghost atom cutoff = 5
  binsize = 1, bins = 20 20 20
Setting up cg style minimization ...
  Unit style: lj
Memory usage per processor = 24.0367 Mbytes
Step Temp E_pair E_mol TotEng Press 
       0            0    7.8441595            0    7.8441595    18.844752 
      36            0    4.2162452            0    4.2162452    16.613297 
Loop time of 2.07664 on 2 procs for 36 steps with 24000 atoms

100.0% CPU use with 2 MPI tasks x no OpenMP threads

Minimization stats:
  Stopping criterion = energy tolerance
  Energy initial, next-to-last, final = 
         7.84415951736      4.21627648972       4.2162452417
  Force two-norm initial, final = 6804.29 4029.97
  Force max component initial, final = 159.709 92.4734
  Final line search alpha, max atom move = 1.50171e-05 0.00138868
  Iterations, force evaluations = 36 122

MPI task timing breakdown:
Section |  min time  |  avg time  |  max time  |%varavg| %total
---------------------------------------------------------------
Pair    | 1.6903     | 1.6936     | 1.6969     |   0.3 | 81.56
Bond    | 8.5831e-05 | 0.00011432 | 0.00014281 |   0.3 |  0.01
Neigh   | 0.097074   | 0.097077   | 0.09708    |   0.0 |  4.67
Comm    | 0.24347    | 0.2474     | 0.25133    |   0.8 | 11.91
Output  | 0          | 0          | 0          |   0.0 |  0.00
Modify  | 0          | 0          | 0          |   0.0 |  0.00
Other   |            | 0.03843    |            |       |  1.85

Nlocal:    12000 ave 12120 max 11880 min
Histogram: 1 0 0 0 0 0 0 0 0 1
Nghost:    41964 ave 42084 max 41844 min
Histogram: 1 0 0 0 0 0 0 0 0 1
Neighs:    600304 ave 609048 max 591559 min
Histogram: 1 0 0 0 0 0 0 0 0 1

Total # of neighbors = 1200607
Ave neighs/atom = 50.0253
Ave special neighs/atom = 0
Neighbor list builds = 2
Dangerous builds not checked
WARNING: Use special bonds = 0,1,1 with bond style fene (../bond_fene.cpp:188)
Neighbor list info ...
  1 neighbor list requests
  update every 6 steps, delay 0 steps, check no
  max neighbors/atom: 2000, page size: 100000
  master list distance cutoff = 2
  ghost atom cutoff = 5
  binsize = 1, bins = 20 20 20
Setting up Verlet run ...
  Unit style  : lj
  Current step: 36
  Time step   : 0.01
Memory usage per processor = 19.052 Mbytes
Step Temp E_pair E_mol TotEng Press 
      36            0    4.2162452            0    4.2162452    16.711674 
Loop time of 1.54972e-06 on 2 procs for 0 steps with 24000 atoms

0.0% CPU use with 2 MPI tasks x no OpenMP threads

MPI task timing breakdown:
Section |  min time  |  avg time  |  max time  |%varavg| %total
---------------------------------------------------------------
Pair    | 0          | 0          | 0          |   0.0 |  0.00
Bond    | 0          | 0          | 0          |   0.0 |  0.00
Neigh   | 0          | 0          | 0          |   0.0 |  0.00
Comm    | 0          | 0          | 0          |   0.0 |  0.00
Output  | 0          | 0          | 0          |   0.0 |  0.00
Modify  | 0          | 0          | 0          |   0.0 |  0.00
Other   |            | 1.55e-06   |            |       |100.00

Nlocal:    12000 ave 12101 max 11899 min
Histogram: 1 0 0 0 0 0 0 0 0 1
Nghost:    41971 ave 42072 max 41870 min
Histogram: 1 0 0 0 0 0 0 0 0 1
Neighs:    599470 ave 607121 max 591820 min
Histogram: 1 0 0 0 0 0 0 0 0 1

Total # of neighbors = 1198941
Ave neighs/atom = 49.9559
Ave special neighs/atom = 0
Neighbor list builds = 0
Dangerous builds not checked
WARNING: Use special bonds = 0,1,1 with bond style fene (../bond_fene.cpp:188)
Setting up Verlet run ...
  Unit style  : lj
  Current step: 36
  Time step   : 0.005
Memory usage per processor = 19.0672 Mbytes
Step Temp Press Pxy visc vave 
      36   0.44450588    17.950247   0.14274372   -1.4274372            0 
Loop time of 1.54972e-06 on 2 procs for 0 steps with 24000 atoms

0.0% CPU use with 2 MPI tasks x no OpenMP threads

MPI task timing breakdown:
Section |  min time  |  avg time  |  max time  |%varavg| %total
---------------------------------------------------------------
Pair    | 0          | 0          | 0          |   0.0 |  0.00
Bond    | 0          | 0          | 0          |   0.0 |  0.00
Neigh   | 0          | 0          | 0          |   0.0 |  0.00
Comm    | 0          | 0          | 0          |   0.0 |  0.00
Output  | 0          | 0          | 0          |   0.0 |  0.00
Modify  | 0          | 0          | 0          |   0.0 |  0.00
Other   |            | 1.55e-06   |            |       |100.00

Nlocal:    12000 ave 12101 max 11899 min
Histogram: 1 0 0 0 0 0 0 0 0 1
Nghost:    41971 ave 42072 max 41870 min
Histogram: 1 0 0 0 0 0 0 0 0 1
Neighs:    599470 ave 607121 max 591820 min
Histogram: 1 0 0 0 0 0 0 0 0 1

Total # of neighbors = 1198941
Ave neighs/atom = 49.9559
Ave special neighs/atom = 0
Neighbor list builds = 0
Dangerous builds not checked
0000Bad Mood
Total wall time: 0:00:02
Bad Mood
smoothSolver:  Solving for Ux, Initial residual = 0.0816328, Final residual = 8.6466e-06, No Iterations 28
smoothSolver:  Solving for Uy, Initial residual = 1, Final residual = 8.37611e-06, No Iterations 59
GAMG:  Solving for p, Initial residual = 1, Final residual = 0.0419452, No Iterations 3
time step continuity errors : sum local = 1.87278e-05, global = -8.15939e-07, cumulative = -8.15669e-07
GAMG:  Solving for p, Initial residual = 0.618666, Final residual = 0.0259612, No Iterations 3
time step continuity errors : sum local = 1.53119e-05, global = 9.44976e-07, cumulative = 1.29307e-07
GAMG:  Solving for p, Initial residual = 0.396204, Final residual = 0.0155317, No Iterations 3
time step continuity errors : sum local = 3.53296e-06, global = -2.89794e-07, cumulative = -1.60487e-07
GAMG:  Solving for p, Initial residual = 0.260594, Final residual = 0.0156831, No Iterations 3
time step continuity errors : sum local = 1.97456e-06, global = 3.59349e-07, cumulative = 1.98863e-07
GAMG:  Solving for p, Initial residual = 0.178736, Final residual = 9.71028e-07, No Iterations 18
time step continuity errors : sum local = 9.35861e-11, global = 1.24316e-11, cumulative = 1.98875e-07
ExecutionTime = 119.34 s  ClockTime = 121 s

Time = 0.42

Courant Number mean: 0.00511684 max: 0.00882778
Bad Mood
Bad Mood
smoothSolver:  Solving for Ux, Initial residual = 0.0102384, Final residual = 9.11024e-06, No Iterations 20
smoothSolver:  Solving for Uy, Initial residual = 0.410568, Final residual = 9.07783e-06, No Iterations 49
GAMG:  Solving for p, Initial residual = 0.496887, Final residual = 0.0254092, No Iterations 3
time step continuity errors : sum local = 3.68028e-06, global = 1.27774e-07, cumulative = 3.26649e-07
GAMG:  Solving for p, Initial residual = 0.327317, Final residual = 0.0133957, No Iterations 3
time step continuity errors : sum local = 2.30688e-06, global = 2.57683e-07, cumulative = 5.84332e-07
GAMG:  Solving for p, Initial residual = 0.0901156, Final residual = 0.00560489, No Iterations 3
time step continuity errors : sum local = 8.0184e-07, global = 2.71045e-07, cumulative = 8.55377e-07
GAMG:  Solving for p, Initial residual = 0.0248158, Final residual = 0.00242448, No Iterations 3
time step continuity errors : sum local = 3.41144e-07, global = -1.35002e-08, cumulative = 8.41877e-07
GAMG:  Solving for p, Initial residual = 0.00828738, Final residual = 4.20938e-07, No Iterations 12
time step continuity errors : sum local = 5.96822e-11, global = -2.07727e-12, cumulative = 8.41875e-07
ExecutionTime = 119.34 s  ClockTime = 121 s

Time = 0.43

Courant Number mean: 0.00505942 max: 0.00876639
Bad Mood
Bad Mood
smoothSolver:  Solving for Ux, Initial residual = 0.00101839, Final residual = 9.35894e-06, No Iterations 17
smoothSolver:  Solving for Uy, Initial residual = 0.0379056, Final residual = 9.68651e-06, No Iterations 36
GAMG:  Solving for p, Initial residual = 0.068671, Final residual = 0.00616127, No Iterations 3
time step continuity errors : sum local = 9.17095e-07, global = 1.25903e-07, cumulative = 9.67778e-07
GAMG:  Solving for p, Initial residual = 0.0417616, Final residual = 0.00389869, No Iterations 3
time step continuity errors : sum local = 6.02937e-07, global = -2.35723e-08, cumulative = 9.44206e-07
GAMG:  Solving for p, Initial residual = 0.0131839, Final residual = 0.00112394, No Iterations 3
time step continuity errors : sum local = 1.68416e-07, global = 3.05837e-08, cumulative = 9.74789e-07
GAMG:  Solving for p, Initial residual = 0.00481303, Final residual = 0.000466455, No Iterations 3
time step continuity errors : sum local = 6.92055e-08, global = -5.61273e-09, cumulative = 9.69176e-07
GAMG:  Solving for p, Initial residual = 0.00299121, Final residual = 9.02012e-07, No Iterations 9
time step continuity errors : sum local = 1.33466e-10, global = 3.34792e-11, cumulative = 9.6921e-07
ExecutionTime = 119.35 s  ClockTime = 121 s

Time = 0.44

Courant Number mean: 0.00506139 max: 0.00876285
Bad Mood
Bad Mood
smoothSolver:  Solving for Ux, Initial residual = 0.000241357, Final residual = 8.98911e-06, No Iterations 8
smoothSolver:  Solving for Uy, Initial residual = 0.0108142, Final residual = 9.36116e-06, No Iterations 25
GAMG:  Solving for p, Initial residual = 0.0147915, Final residual = 0.00136842, No Iterations 2
time step continuity errors : sum local = 2.03645e-07, global = -6.9989e-09, cumulative = 9.62211e-07
GAMG:  Solving for p, Initial residual = 0.00548138, Final residual = 0.000486869, No Iterations 2
time step continuity errors : sum local = 7.28311e-08, global = -1.50271e-09, cumulative = 9.60708e-07
GAMG:  Solving for p, Initial residual = 0.00229503, Final residual = 0.000212753, No Iterations 3
time step continuity errors : sum local = 3.17851e-08, global = -1.18984e-09, cumulative = 9.59519e-07
GAMG:  Solving for p, Initial residual = 0.00086695, Final residual = 8.55306e-05, No Iterations 4
time step continuity errors : sum local = 1.2773e-08, global = 1.16434e-09, cumulative = 9.60683e-07
GAMG:  Solving for p, Initial residual = 0.00048964, Final residual = 4.13782e-07, No Iterations 9
time step continuity errors : sum local = 6.1791e-11, global = -2.38947e-12, cumulative = 9.6068e-07
ExecutionTime = 119.35 s  ClockTime = 121 s

Time = 0.45

Courant Number mean: 0.00506078 max: 0.00876175
Bad Mood
Bad Mood
smoothSolver:  Solving for Ux, Initial residual = 3.717e-05, Final residual = 8.76932e-06, No Iterations 6
smoothSolver:  Solving for Uy, Initial residual = 0.00145169, Final residual = 9.56801e-06, No Iterations 16
GAMG:  Solving for p, Initial residual = 0.00303639, Final residual = 0.000268835, No Iterations 2
time step continuity errors : sum local = 4.01992e-08, global = -4.82767e-10, cumulative = 9.60198e-07
GAMG:  Solving for p, Initial residual = 0.00140718, Final residual = 7.89464e-05, No Iterations 3
time step continuity errors : sum local = 1.1817e-08, global = -1.86914e-09, cumulative = 9.58329e-07
GAMG:  Solving for p, Initial residual = 0.000470131, Final residual = 2.26278e-05, No Iterations 3
time step continuity errors : sum local = 3.38466e-09, global = 4.75973e-10, cumulative = 9.58805e-07
GAMG:  Solving for p, Initial residual = 0.000261773, Final residual = 2.28483e-05, No Iterations 4
time step continuity errors : sum local = 3.41677e-09, global = -1.7659e-10, cumulative = 9.58628e-07
GAMG:  Solving for p, Initial residual = 0.000178456, Final residual = 5.94743e-07, No Iterations 7
time step continuity errors : sum local = 8.89322e-11, global = 4.93803e-12, cumulative = 9.58633e-07
ExecutionTime = 119.35 s  ClockTime = 121 s

Time = 0.46

Courant Number mean: 0.00506079 max: 0.00876179
Bad Mood
Bad Mood
smoothSolver:  Solving for Ux, Initial residual = 1.79043e-05, Final residual = 8.3089e-06, No Iterations 3
smoothSolver:  Solving for Uy, Initial residual = 0.000333989, Final residual = 9.51365e-06, No Iterations 7
GAMG:  Solving for p, Initial residual = 0.000753212, Final residual = 6.04635e-05, No Iterations 3
time step continuity errors : sum local = 9.04226e-09, global = 1.84868e-09, cumulative = 9.60482e-07
GAMG:  Solving for p, Initial residual = 0.000256586, Final residual = 1.37681e-05, No Iterations 3
time step continuity errors : sum local = 2.05926e-09, global = -1.06884e-10, cumulative = 9.60375e-07
GAMG:  Solving for p, Initial residual = 0.000105025, Final residual = 6.69092e-06, No Iterations 3
time step continuity errors : sum local = 1.00071e-09, global = 1.24235e-11, cumulative = 9.60387e-07
GAMG:  Solving for p, Initial residual = 7.23546e-05, Final residual = 6.54854e-06, No Iterations 4
time step continuity errors : sum local = 9.794e-10, global = 1.52516e-10, cumulative = 9.6054e-07
GAMG:  Solving for p, Initial residual = 5.04057e-05, Final residual = 7.3352e-07, No Iterations 5
time step continuity errors : sum local = 1.09705e-10, global = -5.49667e-12, cumulative = 9.60534e-07
ExecutionTime = 119.35 s  ClockTime = 121 s

Time = 0.47

Courant Number mean: 0.00506077 max: 0.00876173
Bad Mood
Bad Mood
smoothSolver:  Solving for Ux, Initial residual = 4.90095e-06, Final residual = 4.90095e-06, No Iterations 0
smoothSolver:  Solving for Uy, Initial residual = 6.60932e-05, Final residual = 7.7301e-06, No Iterations 3
GAMG:  Solving for p, Initial residual = 6.62785e-05, Final residual = 5.04733e-06, No Iterations 2
time step continuity errors : sum local = 7.54892e-10, global = -1.1367e-11, cumulative = 9.60523e-07
GAMG:  Solving for p, Initial residual = 3.81606e-05, Final residual = 2.64737e-06, No Iterations 3
time step continuity errors : sum local = 3.95954e-10, global = -5.27559e-11, cumulative = 9.6047e-07
GAMG:  Solving for p, Initial residual = 1.28323e-05, Final residual = 1.18421e-06, No Iterations 4
time step continuity errors : sum local = 1.77116e-10, global = 1.21812e-12, cumulative = 9.60471e-07
GAMG:  Solving for p, Initial residual = 6.9071e-06, Final residual = 8.63649e-07, No Iterations 2
time step continuity errors : sum local = 1.2917e-10, global = 2.33623e-11, cumulative = 9.60495e-07
GAMG:  Solving for p, Initial residual = 4.31716e-06, Final residual = 7.90322e-07, No Iterations 2
time step continuity errors : sum local = 1.18203e-10, global = 9.19639e-12, cumulative = 9.60504e-07
ExecutionTime = 119.35 s  ClockTime = 121 s

Time = 0.48

Courant Number mean: 0.00506077 max: 0.00876174
Bad Mood
Bad Mood
smoothSolver:  Solving for Ux, Initial residual = 9.56212e-07, Final residual = 9.56212e-07, No Iterations 0
smoothSolver:  Solving for Uy, Initial residual = 1.06652e-05, Final residual = 4.88576e-06, No Iterations 1
GAMG:  Solving for p, Initial residual = 1.01081e-05, Final residual = 5.48398e-07, No Iterations 2
time step continuity errors : sum local = 8.20205e-11, global = 8.56329e-13, cumulative = 9.60505e-07
GAMG:  Solving for p, Initial residual = 6.27107e-06, Final residual = 5.43338e-07, No Iterations 2
time step continuity errors : sum local = 8.12638e-11, global = 4.65202e-12, cumulative = 9.60509e-07
GAMG:  Solving for p, Initial residual = 2.57727e-06, Final residual = 6.26877e-07, No Iterations 1
time step continuity errors : sum local = 9.37582e-11, global = -1.03727e-11, cumulative = 9.60499e-07
GAMG:  Solving for p, Initial residual = 1.80786e-06, Final residual = 8.10779e-07, No Iterations 1
time step continuity errors : sum local = 1.21263e-10, global = 1.41744e-11, cumulative = 9.60513e-07
GAMG:  Solving for p, Initial residual = 1.74687e-06, Final residual = 4.70732e-07, No Iterations 1
time step continuity errors : sum local = 7.04045e-11, global = -7.30461e-12, cumulative = 9.60506e-07
ExecutionTime = 119.36 s  ClockTime = 121 s

Time = 0.49

Courant Number mean: 0.00506077 max: 0.00876174
Bad Mood
Bad Mood
smoothSolver:  Solving for Ux, Initial residual = 3.31211e-07, Final residual = 3.31211e-07, No Iterations 0
smoothSolver:  Solving for Uy, Initial residual = 3.87194e-06, Final residual = 3.87194e-06, No Iterations 0
GAMG:  Solving for p, Initial residual = 1.79334e-06, Final residual = 5.0892e-07, No Iterations 1
time step continuity errors : sum local = 7.6116e-11, global = 9.04339e-12, cumulative = 9.60515e-07
GAMG:  Solving for p, Initial residual = 1.1763e-06, Final residual = 2.78527e-07, No Iterations 1
time step continuity errors : sum local = 4.16576e-11, global = -1.74135e-12, cumulative = 9.60513e-07
GAMG:  Solving for p, Initial residual = 5.54439e-07, Final residual = 5.54439e-07, No Iterations 0
time step continuity errors : sum local = 8.2924e-11, global = -6.6598e-12, cumulative = 9.60506e-07
GAMG:  Solving for p, Initial residual = 6.0175e-07, Final residual = 6.0175e-07, No Iterations 0
time step continuity errors : sum local = 9e-11, global = -9.4763e-12, cumulative = 9.60497e-07
GAMG:  Solving for p, Initial residual = 8.47025e-07, Final residual = 8.47025e-07, No Iterations 0
time step continuity errors : sum local = 1.26684e-10, global = -1.3553e-11, cumulative = 9.60483e-07
ExecutionTime = 119.36 s  ClockTime = 121 s

Time = 0.5

Courant Number mean: 0.00506076 max: 0.00876174
Bad Mood
Bad Mood
smoothSolver:  Solving for Ux, Initial residual = 1.6631e-07, Final residual = 1.6631e-07, No Iterations 0
smoothSolver:  Solving for Uy, Initial residual = 1.73073e-06, Final residual = 1.73073e-06, No Iterations 0
GAMG:  Solving for p, Initial residual = 1.2571e-06, Final residual = 4.86542e-07, No Iterations 1
time step continuity errors : sum local = 7.27691e-11, global = -1.50771e-12, cumulative = 9.60482e-07
GAMG:  Solving for p, Initial residual = 7.50839e-07, Final residual = 7.50839e-07, No Iterations 0
time step continuity errors : sum local = 1.12298e-10, global = 1.94618e-12, cumulative = 9.60484e-07
GAMG:  Solving for p, Initial residual = 6.9009e-07, Final residual = 6.9009e-07, No Iterations 0
time step continuity errors : sum local = 1.03213e-10, global = 6.0976e-12, cumulative = 9.6049e-07
GAMG:  Solving for p, Initial residual = 8.95785e-07, Final residual = 8.95785e-07, No Iterations 0
time step continuity errors : sum local = 1.33977e-10, global = 9.14611e-12, cumulative = 9.60499e-07
GAMG:  Solving for p, Initial residual = 9.0714e-07, Final residual = 9.0714e-07, No Iterations 0
time step continuity errors : sum local = 1.35675e-10, global = 1.26701e-11, cumulative = 9.60512e-07
ExecutionTime = 119.36 s  ClockTime = 121 s

End

Finalising parallel run
