/*---------------------------------------------------------------------------*\
| =========                 |                                                 |
| \\      /  F ield         | OpenFOAM: The Open Source CFD Toolbox           |
|  \\    /   O peration     | Version:  5.0                                   |
|   \\  /    A nd           | Web:      www.OpenFOAM.org                      |
|    \\/     M anipulation  |                                                 |
\*---------------------------------------------------------------------------*/
Build  : 5.0-dbb428a3a855
Exec   : AnonNewtonianIcoFoam -parallel
Date   : Oct 24 2017
Time   : 10:54:04
Host   : "hermes-N552VW"
PID    : 29961
I/O    : uncollated
Case   : /home/hermes/Desktop/ReworkedSolver/alpha/test
nProcs : 2
Slaves : 1("hermes-N552VW.29962")
Pstream initialized with:
    floatTransfer      : 0
    nProcsSimpleSum    : 0
    commsType          : nonBlocking
    polling iterations : 0
sigFpe : Enabling floating point exception trapping (FOAM_SIGFPE).
fileModificationChecking : Monitoring run-time modified files using timeStampMaster (fileModificationSkew 10)
allowSystemOperations : Allowing user-supplied system call operations

// * * * * * * * * * * * * * * * * * * * * * * * * * * * * * * * * * * * * * //
Create time

Create mesh, no clear-out for time = 0


PISO: Operating solver in PISO mode

Reading field p

Reading field U

Hey! I am faking the viscosity 

Reading/calculating face flux field phi

Selecting incompressible transport model CrossPowerLaw

Starting time loop

Time = 0.01

Courant Number mean: 0 max: 0
smoothSolver:  Solving for Ux, Initial residual = 1, Final residual = 9.21135e-06, No Iterations 97
smoothSolver:  Solving for Uy, Initial residual = 0, Final residual = 0, No Iterations 0
GAMG:  Solving for p, Initial residual = 1, Final residual = 0.0735698, No Iterations 10
time step continuity errors : sum local = 3.76704e-11, global = -1.72933e-12, cumulative = -1.72933e-12
GAMG:  Solving for p, Initial residual = 0.618015, Final residual = 0.0421826, No Iterations 10
time step continuity errors : sum local = 3.01313e-11, global = 3.95263e-13, cumulative = -1.33407e-12
GAMG:  Solving for p, Initial residual = 0.283249, Final residual = 0.0269755, No Iterations 10
time step continuity errors : sum local = 9.68526e-12, global = 6.69929e-13, cumulative = -6.64142e-13
GAMG:  Solving for p, Initial residual = 0.237839, Final residual = 0.0198996, No Iterations 7
time step continuity errors : sum local = 3.70385e-12, global = 8.65524e-14, cumulative = -5.77589e-13
GAMG:  Solving for p, Initial residual = 0.198641, Final residual = 7.10676e-07, No Iterations 27
time step continuity errors : sum local = 9.44218e-17, global = -6.51803e-18, cumulative = -5.77596e-13
ExecutionTime = 0.02 s  ClockTime = 0 s

Time = 0.02

Courant Number mean: 0.00289543 max: 0.00920902
smoothSolver:  Solving for Ux, Initial residual = 0.0341513, Final residual = 9.18693e-06, No Iterations 82
smoothSolver:  Solving for Uy, Initial residual = 0.801165, Final residual = 9.23919e-06, No Iterations 91
GAMG:  Solving for p, Initial residual = 0.943665, Final residual = 0.0779126, No Iterations 10
time step continuity errors : sum local = 6.19836e-11, global = -3.55521e-12, cumulative = -4.1328e-12
GAMG:  Solving for p, Initial residual = 0.622892, Final residual = 0.0588075, No Iterations 8
time step continuity errors : sum local = 6.33627e-11, global = 2.32836e-12, cumulative = -1.80444e-12
GAMG:  Solving for p, Initial residual = 0.259775, Final residual = 0.0228979, No Iterations 14
time step continuity errors : sum local = 1.26242e-11, global = 6.13079e-13, cumulative = -1.19136e-12
GAMG:  Solving for p, Initial residual = 0.272212, Final residual = 0.025277, No Iterations 13
time step continuity errors : sum local = 4.21521e-12, global = 2.09867e-13, cumulative = -9.81493e-13
GAMG:  Solving for p, Initial residual = 0.18213, Final residual = 8.13615e-07, No Iterations 29
time step continuity errors : sum local = 1.0248e-16, global = -4.86243e-18, cumulative = -9.81498e-13
ExecutionTime = 0.03 s  ClockTime = 0 s

Time = 0.03

Courant Number mean: 0.00396358 max: 0.00959302
smoothSolver:  Solving for Ux, Initial residual = 0.0125766, Final residual = 9.92519e-06, No Iterations 74
smoothSolver:  Solving for Uy, Initial residual = 0.773724, Final residual = 9.27114e-06, No Iterations 91
GAMG:  Solving for p, Initial residual = 0.969782, Final residual = 0.0916767, No Iterations 8
time step continuity errors : sum local = 7.25323e-11, global = -8.27449e-13, cumulative = -1.80895e-12
GAMG:  Solving for p, Initial residual = 0.577394, Final residual = 0.0373412, No Iterations 8
time step continuity errors : sum local = 4.03738e-11, global = 3.09447e-13, cumulative = -1.4995e-12
GAMG:  Solving for p, Initial residual = 0.228016, Final residual = 0.0146706, No Iterations 12
time step continuity errors : sum local = 7.99007e-12, global = 4.89396e-13, cumulative = -1.0101e-12
GAMG:  Solving for p, Initial residual = 0.162123, Final residual = 0.0147297, No Iterations 7
time step continuity errors : sum local = 5.53944e-12, global = 1.49835e-14, cumulative = -9.9512e-13
GAMG:  Solving for p, Initial residual = 0.135953, Final residual = 6.01624e-07, No Iterations 26
time step continuity errors : sum local = 1.72016e-16, global = 1.72759e-17, cumulative = -9.95103e-13
ExecutionTime = 0.04 s  ClockTime = 0 s

Time = 0.04

Courant Number mean: 0.00447959 max: 0.00968106
smoothSolver:  Solving for Ux, Initial residual = 0.00607805, Final residual = 9.77128e-06, No Iterations 67
smoothSolver:  Solving for Uy, Initial residual = 0.760959, Final residual = 9.52533e-06, No Iterations 92
GAMG:  Solving for p, Initial residual = 0.946556, Final residual = 0.0528514, No Iterations 8
time step continuity errors : sum local = 5.00083e-11, global = -3.2969e-12, cumulative = -4.292e-12
GAMG:  Solving for p, Initial residual = 0.444847, Final residual = 0.038719, No Iterations 8
time step continuity errors : sum local = 5.19156e-11, global = 1.27496e-12, cumulative = -3.01704e-12
GAMG:  Solving for p, Initial residual = 0.180371, Final residual = 0.0117807, No Iterations 10
time step continuity errors : sum local = 1.06202e-11, global = 1.78947e-12, cumulative = -1.22757e-12
GAMG:  Solving for p, Initial residual = 0.142862, Final residual = 0.0121663, No Iterations 8
time step continuity errors : sum local = 6.00986e-12, global = -8.78547e-14, cumulative = -1.31542e-12
GAMG:  Solving for p, Initial residual = 0.14464, Final residual = 4.08763e-07, No Iterations 30
time step continuity errors : sum local = 1.59977e-16, global = -9.49813e-19, cumulative = -1.31542e-12
ExecutionTime = 0.06 s  ClockTime = 0 s

Time = 0.05

Courant Number mean: 0.00473765 max: 0.00971679
smoothSolver:  Solving for Ux, Initial residual = 0.00304442, Final residual = 9.63405e-06, No Iterations 60
smoothSolver:  Solving for Uy, Initial residual = 0.786912, Final residual = 9.65161e-06, No Iterations 93
GAMG:  Solving for p, Initial residual = 0.989713, Final residual = 0.0828906, No Iterations 4
time step continuity errors : sum local = 1.28146e-10, global = -1.17567e-11, cumulative = -1.30721e-11
GAMG:  Solving for p, Initial residual = 0.281378, Final residual = 0.0184663, No Iterations 6
time step continuity errors : sum local = 4.15734e-11, global = -1.06886e-12, cumulative = -1.4141e-11
GAMG:  Solving for p, Initial residual = 0.140196, Final residual = 0.0133835, No Iterations 8
time step continuity errors : sum local = 2.36777e-11, global = 2.06976e-12, cumulative = -1.20712e-11
GAMG:  Solving for p, Initial residual = 0.13961, Final residual = 0.0128155, No Iterations 9
time step continuity errors : sum local = 1.68308e-11, global = 2.0448e-13, cumulative = -1.18668e-11
GAMG:  Solving for p, Initial residual = 0.12709, Final residual = 7.47621e-07, No Iterations 31
time step continuity errors : sum local = 7.54455e-16, global = 1.63676e-17, cumulative = -1.18667e-11
ExecutionTime = 0.07 s  ClockTime = 0 s

Time = 0.06

Courant Number mean: 0.00486748 max: 0.00973351
smoothSolver:  Solving for Ux, Initial residual = 0.00153605, Final residual = 9.51272e-06, No Iterations 53
smoothSolver:  Solving for Uy, Initial residual = 0.823036, Final residual = 9.17972e-06, No Iterations 96
GAMG:  Solving for p, Initial residual = 0.997567, Final residual = 0.0866883, No Iterations 7
time step continuity errors : sum local = 2.58192e-10, global = -2.30054e-11, cumulative = -3.48722e-11
GAMG:  Solving for p, Initial residual = 0.174124, Final residual = 0.0159307, No Iterations 5
time step continuity errors : sum local = 8.15249e-11, global = 4.355e-12, cumulative = -3.05172e-11
GAMG:  Solving for p, Initial residual = 0.137247, Final residual = 0.00945814, No Iterations 10
time step continuity errors : sum local = 3.87372e-11, global = 9.12349e-13, cumulative = -2.96048e-11
GAMG:  Solving for p, Initial residual = 0.127221, Final residual = 0.00885789, No Iterations 7
time step continuity errors : sum local = 2.24014e-11, global = 2.20932e-12, cumulative = -2.73955e-11
GAMG:  Solving for p, Initial residual = 0.129841, Final residual = 9.67008e-07, No Iterations 24
time step continuity errors : sum local = 1.90538e-15, global = -8.03289e-17, cumulative = -2.73956e-11
ExecutionTime = 0.07 s  ClockTime = 0 s

Time = 0.07

Courant Number mean: 0.00493288 max: 0.0097417
smoothSolver:  Solving for Ux, Initial residual = 0.000777875, Final residual = 9.4173e-06, No Iterations 46
smoothSolver:  Solving for Uy, Initial residual = 0.855531, Final residual = 9.63763e-06, No Iterations 96
GAMG:  Solving for p, Initial residual = 0.997063, Final residual = 0.0870436, No Iterations 5
time step continuity errors : sum local = 5.40963e-10, global = 9.58641e-12, cumulative = -1.78092e-11
GAMG:  Solving for p, Initial residual = 0.204891, Final residual = 0.0151048, No Iterations 6
time step continuity errors : sum local = 1.42342e-10, global = -4.9932e-13, cumulative = -1.83085e-11
GAMG:  Solving for p, Initial residual = 0.118389, Final residual = 0.00916418, No Iterations 10
time step continuity errors : sum local = 7.15268e-11, global = 8.7288e-12, cumulative = -9.57968e-12
GAMG:  Solving for p, Initial residual = 0.139171, Final residual = 0.0134779, No Iterations 8
time step continuity errors : sum local = 7.64391e-11, global = 1.14122e-11, cumulative = 1.83249e-12
GAMG:  Solving for p, Initial residual = 0.13639, Final residual = 6.20939e-07, No Iterations 25
time step continuity errors : sum local = 2.73101e-15, global = 1.2208e-16, cumulative = 1.83261e-12
ExecutionTime = 0.09 s  ClockTime = 0 s

Time = 0.08

Courant Number mean: 0.00496583 max: 0.00974579
smoothSolver:  Solving for Ux, Initial residual = 0.000396013, Final residual = 9.3703e-06, No Iterations 39
smoothSolver:  Solving for Uy, Initial residual = 0.881516, Final residual = 9.99313e-06, No Iterations 98
GAMG:  Solving for p, Initial residual = 0.998531, Final residual = 0.0531727, No Iterations 7
time step continuity errors : sum local = 6.89804e-10, global = -5.8838e-11, cumulative = -5.70054e-11
GAMG:  Solving for p, Initial residual = 0.16156, Final residual = 0.0126017, No Iterations 5
time step continuity errors : sum local = 2.77186e-10, global = 2.38263e-11, cumulative = -3.31792e-11
GAMG:  Solving for p, Initial residual = 0.131062, Final residual = 0.00999243, No Iterations 10
time step continuity errors : sum local = 1.70504e-10, global = 1.34333e-11, cumulative = -1.97458e-11
GAMG:  Solving for p, Initial residual = 0.128652, Final residual = 0.0110685, No Iterations 7
time step continuity errors : sum local = 1.27974e-10, global = 8.29381e-12, cumulative = -1.1452e-11
GAMG:  Solving for p, Initial residual = 0.129319, Final residual = 6.20645e-07, No Iterations 29
time step continuity errors : sum local = 5.58393e-15, global = 2.09144e-16, cumulative = -1.14518e-11
ExecutionTime = 0.1 s  ClockTime = 0 s

Time = 0.09

Courant Number mean: 0.00498243 max: 0.00974784
smoothSolver:  Solving for Ux, Initial residual = 0.000203746, Final residual = 9.42144e-06, No Iterations 32
smoothSolver:  Solving for Uy, Initial residual = 0.882154, Final residual = 9.48122e-06, No Iterations 99
GAMG:  Solving for p, Initial residual = 0.999156, Final residual = 0.0999061, No Iterations 5
time step continuity errors : sum local = 2.68143e-09, global = 3.17724e-11, cumulative = 2.03206e-11
GAMG:  Solving for p, Initial residual = 0.190871, Final residual = 0.012148, No Iterations 6
time step continuity errors : sum local = 4.98783e-10, global = 2.52812e-12, cumulative = 2.28487e-11
GAMG:  Solving for p, Initial residual = 0.117432, Final residual = 0.00973047, No Iterations 10
time step continuity errors : sum local = 3.35593e-10, global = 3.93003e-11, cumulative = 6.2149e-11
GAMG:  Solving for p, Initial residual = 0.136521, Final residual = 0.0123684, No Iterations 9
time step continuity errors : sum local = 3.05237e-10, global = -2.05518e-11, cumulative = 4.15973e-11
GAMG:  Solving for p, Initial residual = 0.127358, Final residual = 9.50507e-07, No Iterations 29
time step continuity errors : sum local = 1.79847e-14, global = 6.26904e-16, cumulative = 4.15979e-11
ExecutionTime = 0.11 s  ClockTime = 0 s

Time = 0.1

Courant Number mean: 0.0049908 max: 0.00974887
smoothSolver:  Solving for Ux, Initial residual = 0.000106666, Final residual = 9.64004e-06, No Iterations 25
smoothSolver:  Solving for Uy, Initial residual = 0.870161, Final residual = 9.60839e-06, No Iterations 100
GAMG:  Solving for p, Initial residual = 0.998857, Final residual = 0.0990234, No Iterations 5
time step continuity errors : sum local = 5.31977e-09, global = -1.93729e-10, cumulative = -1.52131e-10
GAMG:  Solving for p, Initial residual = 0.184761, Final residual = 0.0116892, No Iterations 6
time step continuity errors : sum local = 9.62582e-10, global = -9.53554e-11, cumulative = -2.47486e-10
GAMG:  Solving for p, Initial residual = 0.120536, Final residual = 0.00926238, No Iterations 10
time step continuity errors : sum local = 6.30477e-10, global = 9.94382e-12, cumulative = -2.37543e-10
GAMG:  Solving for p, Initial residual = 0.134089, Final residual = 0.0102462, No Iterations 9
time step continuity errors : sum local = 5.11363e-10, global = 4.68952e-11, cumulative = -1.90647e-10
GAMG:  Solving for p, Initial residual = 0.127922, Final residual = 6.26662e-07, No Iterations 24
time step continuity errors : sum local = 2.3677e-14, global = -7.25176e-16, cumulative = -1.90648e-10
ExecutionTime = 0.12 s  ClockTime = 0 s

Time = 0.11

Courant Number mean: 0.00499502 max: 0.00974939
smoothSolver:  Solving for Ux, Initial residual = 5.83636e-05, Final residual = 9.36215e-06, No Iterations 19
smoothSolver:  Solving for Uy, Initial residual = 0.876227, Final residual = 9.54041e-06, No Iterations 100
GAMG:  Solving for p, Initial residual = 0.998877, Final residual = 0.0733708, No Iterations 7
time step continuity errors : sum local = 7.45682e-09, global = 3.316e-10, cumulative = 1.40951e-10
GAMG:  Solving for p, Initial residual = 0.169739, Final residual = 0.0126449, No Iterations 4
time step continuity errors : sum local = 2.09507e-09, global = 3.3846e-10, cumulative = 4.79412e-10
GAMG:  Solving for p, Initial residual = 0.127064, Final residual = 0.0100888, No Iterations 11
time step continuity errors : sum local = 1.34967e-09, global = 1.19696e-10, cumulative = 5.99108e-10
GAMG:  Solving for p, Initial residual = 0.130715, Final residual = 0.0114115, No Iterations 7
time step continuity errors : sum local = 1.02478e-09, global = -3.17531e-11, cumulative = 5.67354e-10
GAMG:  Solving for p, Initial residual = 0.133372, Final residual = 7.39304e-07, No Iterations 29
time step continuity errors : sum local = 5.15403e-14, global = -1.46384e-15, cumulative = 5.67353e-10
ExecutionTime = 0.13 s  ClockTime = 0 s

Time = 0.12

Courant Number mean: 0.00499718 max: 0.00974967
smoothSolver:  Solving for Ux, Initial residual = 3.29034e-05, Final residual = 9.38442e-06, No Iterations 13
smoothSolver:  Solving for Uy, Initial residual = 0.877624, Final residual = 9.59137e-06, No Iterations 100
GAMG:  Solving for p, Initial residual = 0.998031, Final residual = 0.0937334, No Iterations 5
time step continuity errors : sum local = 1.51947e-08, global = -1.38481e-09, cumulative = -8.17457e-10
GAMG:  Solving for p, Initial residual = 0.184673, Final residual = 0.0148346, No Iterations 6
time step continuity errors : sum local = 3.39053e-09, global = -2.94298e-10, cumulative = -1.11175e-09
GAMG:  Solving for p, Initial residual = 0.123633, Final residual = 0.011873, No Iterations 8
time step continuity errors : sum local = 2.28795e-09, global = 3.95325e-11, cumulative = -1.07222e-09
GAMG:  Solving for p, Initial residual = 0.138783, Final residual = 0.0110838, No Iterations 10
time step continuity errors : sum local = 1.62817e-09, global = 7.97828e-11, cumulative = -9.92439e-10
GAMG:  Solving for p, Initial residual = 0.134002, Final residual = 9.51415e-07, No Iterations 27
time step continuity errors : sum local = 1.03972e-13, global = 6.10491e-15, cumulative = -9.92433e-10
ExecutionTime = 0.15 s  ClockTime = 0 s

Time = 0.13

Courant Number mean: 0.00499826 max: 0.0097498
smoothSolver:  Solving for Ux, Initial residual = 2.21438e-05, Final residual = 9.10656e-06, No Iterations 9
smoothSolver:  Solving for Uy, Initial residual = 0.871616, Final residual = 9.81254e-06, No Iterations 101
GAMG:  Solving for p, Initial residual = 0.997895, Final residual = 0.0688855, No Iterations 7
time step continuity errors : sum local = 1.48079e-08, global = -3.4454e-10, cumulative = -1.33697e-09
GAMG:  Solving for p, Initial residual = 0.154258, Final residual = 0.0119024, No Iterations 4
time step continuity errors : sum local = 3.87485e-09, global = 4.10789e-10, cumulative = -9.26185e-10
GAMG:  Solving for p, Initial residual = 0.130877, Final residual = 0.012986, No Iterations 12
time step continuity errors : sum local = 3.45834e-09, global = 4.32128e-10, cumulative = -4.94057e-10
GAMG:  Solving for p, Initial residual = 0.13986, Final residual = 0.0138121, No Iterations 7
time step continuity errors : sum local = 2.41813e-09, global = 3.67766e-11, cumulative = -4.5728e-10
GAMG:  Solving for p, Initial residual = 0.136024, Final residual = 6.6166e-07, No Iterations 29
time step continuity errors : sum local = 8.85964e-14, global = 1.8784e-15, cumulative = -4.57279e-10
ExecutionTime = 0.16 s  ClockTime = 0 s

Time = 0.14

Courant Number mean: 0.00499885 max: 0.00974989
smoothSolver:  Solving for Ux, Initial residual = 1.84303e-05, Final residual = 9.16315e-06, No Iterations 6
smoothSolver:  Solving for Uy, Initial residual = 0.84991, Final residual = 9.28602e-06, No Iterations 103
GAMG:  Solving for p, Initial residual = 0.995372, Final residual = 0.0974633, No Iterations 5
time step continuity errors : sum local = 2.00531e-08, global = -1.40664e-09, cumulative = -1.86392e-09
GAMG:  Solving for p, Initial residual = 0.168284, Final residual = 0.0151188, No Iterations 6
time step continuity errors : sum local = 4.17252e-09, global = -3.58334e-10, cumulative = -2.22225e-09
GAMG:  Solving for p, Initial residual = 0.115947, Final residual = 0.0109967, No Iterations 11
time step continuity errors : sum local = 2.56661e-09, global = 3.03459e-10, cumulative = -1.91879e-09
GAMG:  Solving for p, Initial residual = 0.134145, Final residual = 0.0108603, No Iterations 9
time step continuity errors : sum local = 1.75355e-09, global = 1.85589e-10, cumulative = -1.7332e-09
GAMG:  Solving for p, Initial residual = 0.134211, Final residual = 9.43738e-07, No Iterations 25
time step continuity errors : sum local = 1.12457e-13, global = -7.80592e-16, cumulative = -1.7332e-09
ExecutionTime = 0.17 s  ClockTime = 0 s

Time = 0.15

Courant Number mean: 0.00499913 max: 0.00974992
smoothSolver:  Solving for Ux, Initial residual = 1.48385e-05, Final residual = 9.88261e-06, No Iterations 3
smoothSolver:  Solving for Uy, Initial residual = 0.812953, Final residual = 9.56355e-06, No Iterations 103
GAMG:  Solving for p, Initial residual = 0.99183, Final residual = 0.0674455, No Iterations 7
time step continuity errors : sum local = 7.77056e-09, global = -4.63329e-10, cumulative = -2.19653e-09
GAMG:  Solving for p, Initial residual = 0.150245, Final residual = 0.0100816, No Iterations 6
time step continuity errors : sum local = 1.33656e-09, global = 1.405e-10, cumulative = -2.05603e-09
GAMG:  Solving for p, Initial residual = 0.121459, Final residual = 0.00978632, No Iterations 14
time step continuity errors : sum local = 1.03925e-09, global = 1.09131e-10, cumulative = -1.9469e-09
GAMG:  Solving for p, Initial residual = 0.149644, Final residual = 0.0138136, No Iterations 7
time step continuity errors : sum local = 8.66506e-10, global = -2.74845e-11, cumulative = -1.97439e-09
GAMG:  Solving for p, Initial residual = 0.152567, Final residual = 6.84991e-07, No Iterations 33
time step continuity errors : sum local = 3.21555e-14, global = -2.51664e-16, cumulative = -1.97439e-09
ExecutionTime = 0.18 s  ClockTime = 0 s

Time = 0.16

Courant Number mean: 0.00499924 max: 0.00974992
smoothSolver:  Solving for Ux, Initial residual = 9.48527e-06, Final residual = 9.48527e-06, No Iterations 0
smoothSolver:  Solving for Uy, Initial residual = 0.683052, Final residual = 9.22969e-06, No Iterations 105
GAMG:  Solving for p, Initial residual = 0.237483, Final residual = 0.018292, No Iterations 5
time step continuity errors : sum local = 6.75799e-10, global = -2.37504e-11, cumulative = -1.99814e-09
GAMG:  Solving for p, Initial residual = 0.281423, Final residual = 0.0262458, No Iterations 3
time step continuity errors : sum local = 7.59042e-10, global = -3.37684e-11, cumulative = -2.03191e-09
GAMG:  Solving for p, Initial residual = 0.148735, Final residual = 0.0142748, No Iterations 7
time step continuity errors : sum local = 3.00613e-10, global = -2.98109e-11, cumulative = -2.06172e-09
GAMG:  Solving for p, Initial residual = 0.114128, Final residual = 0.00969899, No Iterations 5
time step continuity errors : sum local = 1.60023e-10, global = -7.42326e-12, cumulative = -2.06914e-09
GAMG:  Solving for p, Initial residual = 0.117056, Final residual = 3.4378e-07, No Iterations 35
time step continuity errors : sum local = 4.58853e-15, global = 8.06135e-17, cumulative = -2.06914e-09
ExecutionTime = 0.19 s  ClockTime = 0 s

Time = 0.17

Courant Number mean: 0.00499927 max: 0.00974991
smoothSolver:  Solving for Ux, Initial residual = 8.47352e-06, Final residual = 8.47352e-06, No Iterations 0
smoothSolver:  Solving for Uy, Initial residual = 0.861261, Final residual = 9.94044e-06, No Iterations 99
GAMG:  Solving for p, Initial residual = 0.391115, Final residual = 0.0357038, No Iterations 3
time step continuity errors : sum local = 4.57032e-10, global = 1.58704e-11, cumulative = -2.05327e-09
GAMG:  Solving for p, Initial residual = 0.457187, Final residual = 0.0209766, No Iterations 3
time step continuity errors : sum local = 2.26083e-10, global = 1.84112e-11, cumulative = -2.03486e-09
GAMG:  Solving for p, Initial residual = 0.165154, Final residual = 0.010088, No Iterations 7
time step continuity errors : sum local = 7.02249e-11, global = 3.20949e-12, cumulative = -2.03165e-09
GAMG:  Solving for p, Initial residual = 0.107951, Final residual = 0.00855581, No Iterations 5
time step continuity errors : sum local = 4.74012e-11, global = 1.68746e-12, cumulative = -2.02996e-09
GAMG:  Solving for p, Initial residual = 0.107345, Final residual = 4.97315e-07, No Iterations 25
time step continuity errors : sum local = 2.26207e-15, global = -1.34416e-16, cumulative = -2.02996e-09
ExecutionTime = 0.2 s  ClockTime = 0 s

Time = 0.18

Courant Number mean: 0.00499931 max: 0.00974992
smoothSolver:  Solving for Ux, Initial residual = 8.05095e-06, Final residual = 8.05095e-06, No Iterations 0
smoothSolver:  Solving for Uy, Initial residual = 0.852535, Final residual = 9.63328e-06, No Iterations 89
GAMG:  Solving for p, Initial residual = 0.555482, Final residual = 0.0348275, No Iterations 3
time step continuity errors : sum local = 1.86289e-10, global = -6.87976e-13, cumulative = -2.03065e-09
GAMG:  Solving for p, Initial residual = 0.601155, Final residual = 0.0237936, No Iterations 3
time step continuity errors : sum local = 1.11841e-10, global = 5.46052e-12, cumulative = -2.02519e-09
GAMG:  Solving for p, Initial residual = 0.170699, Final residual = 0.011092, No Iterations 5
time step continuity errors : sum local = 2.81287e-11, global = -1.48846e-12, cumulative = -2.02668e-09
GAMG:  Solving for p, Initial residual = 0.102814, Final residual = 0.00538109, No Iterations 7
time step continuity errors : sum local = 1.10509e-11, global = -5.14571e-13, cumulative = -2.02719e-09
GAMG:  Solving for p, Initial residual = 0.0914348, Final residual = 7.27177e-07, No Iterations 29
time step continuity errors : sum local = 1.23873e-15, global = 1.53635e-17, cumulative = -2.02719e-09
ExecutionTime = 0.21 s  ClockTime = 0 s

Time = 0.19

Courant Number mean: 0.00499935 max: 0.00974992
smoothSolver:  Solving for Ux, Initial residual = 7.60791e-06, Final residual = 7.60791e-06, No Iterations 0
smoothSolver:  Solving for Uy, Initial residual = 0.801462, Final residual = 9.91103e-06, No Iterations 93
GAMG:  Solving for p, Initial residual = 0.686638, Final residual = 0.0384769, No Iterations 3
time step continuity errors : sum local = 1.016e-10, global = 2.10098e-12, cumulative = -2.02509e-09
GAMG:  Solving for p, Initial residual = 0.680667, Final residual = 0.0328202, No Iterations 3
time step continuity errors : sum local = 7.78956e-11, global = 2.38909e-12, cumulative = -2.0227e-09
GAMG:  Solving for p, Initial residual = 0.256765, Final residual = 0.0134561, No Iterations 5
time step continuity errors : sum local = 1.38503e-11, global = 2.86135e-13, cumulative = -2.02242e-09
GAMG:  Solving for p, Initial residual = 0.0923037, Final residual = 0.00883551, No Iterations 7
time step continuity errors : sum local = 7.42979e-12, global = -1.92823e-13, cumulative = -2.02261e-09
GAMG:  Solving for p, Initial residual = 0.0797482, Final residual = 8.35663e-07, No Iterations 29
time step continuity errors : sum local = 5.96951e-16, global = 7.40194e-18, cumulative = -2.02261e-09
ExecutionTime = 0.22 s  ClockTime = 0 s

Time = 0.2

Courant Number mean: 0.00499939 max: 0.00974992
smoothSolver:  Solving for Ux, Initial residual = 7.17593e-06, Final residual = 7.17593e-06, No Iterations 0
smoothSolver:  Solving for Uy, Initial residual = 0.754162, Final residual = 9.78567e-06, No Iterations 92
GAMG:  Solving for p, Initial residual = 0.767676, Final residual = 0.0437616, No Iterations 3
time step continuity errors : sum local = 6.17087e-11, global = 8.63219e-13, cumulative = -2.02174e-09
GAMG:  Solving for p, Initial residual = 0.734518, Final residual = 0.036721, No Iterations 3
time step continuity errors : sum local = 4.77093e-11, global = -1.05432e-12, cumulative = -2.0228e-09
GAMG:  Solving for p, Initial residual = 0.332287, Final residual = 0.0278715, No Iterations 3
time step continuity errors : sum local = 1.30681e-11, global = 8.04057e-13, cumulative = -2.022e-09
GAMG:  Solving for p, Initial residual = 0.094175, Final residual = 0.00825922, No Iterations 6
time step continuity errors : sum local = 3.26563e-12, global = 9.01513e-14, cumulative = -2.02191e-09
GAMG:  Solving for p, Initial residual = 0.0742158, Final residual = 4.25531e-07, No Iterations 31
time step continuity errors : sum local = 1.48179e-16, global = 2.7277e-18, cumulative = -2.02191e-09
ExecutionTime = 0.23 s  ClockTime = 0 s

Time = 0.21

Courant Number mean: 0.00499942 max: 0.00974993
smoothSolver:  Solving for Ux, Initial residual = 6.76463e-06, Final residual = 6.76463e-06, No Iterations 0
smoothSolver:  Solving for Uy, Initial residual = 0.713515, Final residual = 9.42885e-06, No Iterations 96
GAMG:  Solving for p, Initial residual = 0.814642, Final residual = 0.0504112, No Iterations 3
time step continuity errors : sum local = 4.12842e-11, global = 1.1507e-12, cumulative = -2.02075e-09
GAMG:  Solving for p, Initial residual = 0.754059, Final residual = 0.0425003, No Iterations 3
time step continuity errors : sum local = 3.28809e-11, global = 7.13529e-13, cumulative = -2.02004e-09
GAMG:  Solving for p, Initial residual = 0.397573, Final residual = 0.0376715, No Iterations 3
time step continuity errors : sum local = 9.78518e-12, global = -3.51898e-13, cumulative = -2.02039e-09
GAMG:  Solving for p, Initial residual = 0.10269, Final residual = 0.0100737, No Iterations 9
time step continuity errors : sum local = 2.08931e-12, global = -2.13513e-14, cumulative = -2.02041e-09
GAMG:  Solving for p, Initial residual = 0.0699421, Final residual = 5.45439e-07, No Iterations 23
time step continuity errors : sum local = 9.52893e-17, global = 8.91053e-19, cumulative = -2.02041e-09
ExecutionTime = 0.25 s  ClockTime = 0 s

Time = 0.22

Courant Number mean: 0.00499945 max: 0.00974993
smoothSolver:  Solving for Ux, Initial residual = 6.3752e-06, Final residual = 6.3752e-06, No Iterations 0
smoothSolver:  Solving for Uy, Initial residual = 0.67844, Final residual = 9.6588e-06, No Iterations 96
GAMG:  Solving for p, Initial residual = 0.838745, Final residual = 0.0535968, No Iterations 3
time step continuity errors : sum local = 2.55765e-11, global = 3.47791e-13, cumulative = -2.02007e-09
GAMG:  Solving for p, Initial residual = 0.763661, Final residual = 0.044158, No Iterations 3
time step continuity errors : sum local = 2.01797e-11, global = -2.35266e-13, cumulative = -2.0203e-09
GAMG:  Solving for p, Initial residual = 0.428791, Final residual = 0.0357662, No Iterations 3
time step continuity errors : sum local = 5.21822e-12, global = 2.04946e-13, cumulative = -2.0201e-09
GAMG:  Solving for p, Initial residual = 0.0905993, Final residual = 0.00734725, No Iterations 5
time step continuity errors : sum local = 8.76525e-13, global = -7.02152e-14, cumulative = -2.02017e-09
GAMG:  Solving for p, Initial residual = 0.0710163, Final residual = 5.36455e-07, No Iterations 33
time step continuity errors : sum local = 5.94008e-17, global = 1.03142e-18, cumulative = -2.02017e-09
ExecutionTime = 0.25 s  ClockTime = 0 s

Time = 0.23

Courant Number mean: 0.00499948 max: 0.00974994
smoothSolver:  Solving for Ux, Initial residual = 6.0078e-06, Final residual = 6.0078e-06, No Iterations 0
smoothSolver:  Solving for Uy, Initial residual = 0.639271, Final residual = 9.89561e-06, No Iterations 98
GAMG:  Solving for p, Initial residual = 0.834447, Final residual = 0.0581175, No Iterations 3
time step continuity errors : sum local = 1.73189e-11, global = 5.24441e-13, cumulative = -2.01964e-09
GAMG:  Solving for p, Initial residual = 0.750792, Final residual = 0.0478195, No Iterations 3
time step continuity errors : sum local = 1.37867e-11, global = 4.07973e-13, cumulative = -2.01923e-09
GAMG:  Solving for p, Initial residual = 0.404389, Final residual = 0.0212872, No Iterations 4
time step continuity errors : sum local = 2.11822e-12, global = 1.72937e-13, cumulative = -2.01906e-09
GAMG:  Solving for p, Initial residual = 0.101041, Final residual = 0.00880817, No Iterations 10
time step continuity errors : sum local = 7.01817e-13, global = 6.68221e-14, cumulative = -2.01899e-09
GAMG:  Solving for p, Initial residual = 0.0704512, Final residual = 7.6657e-07, No Iterations 23
time step continuity errors : sum local = 5.23614e-17, global = -4.3736e-18, cumulative = -2.01899e-09
ExecutionTime = 0.26 s  ClockTime = 0 s

Time = 0.24

Courant Number mean: 0.00499951 max: 0.00974994
smoothSolver:  Solving for Ux, Initial residual = 5.66125e-06, Final residual = 5.66125e-06, No Iterations 0
smoothSolver:  Solving for Uy, Initial residual = 0.600867, Final residual = 9.70608e-06, No Iterations 99
GAMG:  Solving for p, Initial residual = 0.825952, Final residual = 0.0612405, No Iterations 3
time step continuity errors : sum local = 1.13467e-11, global = 1.27186e-13, cumulative = -2.01887e-09
GAMG:  Solving for p, Initial residual = 0.741273, Final residual = 0.0498479, No Iterations 3
time step continuity errors : sum local = 8.96053e-12, global = -9.41762e-14, cumulative = -2.01896e-09
GAMG:  Solving for p, Initial residual = 0.385559, Final residual = 0.0372296, No Iterations 3
time step continuity errors : sum local = 2.44641e-12, global = 8.11476e-14, cumulative = -2.01888e-09
GAMG:  Solving for p, Initial residual = 0.0840915, Final residual = 0.0052771, No Iterations 5
time step continuity errors : sum local = 3.02643e-13, global = -1.94702e-14, cumulative = -2.0189e-09
GAMG:  Solving for p, Initial residual = 0.0714512, Final residual = 6.01839e-07, No Iterations 33
time step continuity errors : sum local = 3.36087e-17, global = 5.80305e-19, cumulative = -2.0189e-09
ExecutionTime = 0.28 s  ClockTime = 0 s

Time = 0.25

Courant Number mean: 0.00499954 max: 0.00974994
smoothSolver:  Solving for Ux, Initial residual = 5.33461e-06, Final residual = 5.33461e-06, No Iterations 0
smoothSolver:  Solving for Uy, Initial residual = 0.558655, Final residual = 9.17638e-06, No Iterations 101
GAMG:  Solving for p, Initial residual = 0.780178, Final residual = 0.0625042, No Iterations 3
time step continuity errors : sum local = 7.77845e-12, global = 2.20011e-13, cumulative = -2.01868e-09
GAMG:  Solving for p, Initial residual = 0.703664, Final residual = 0.052027, No Iterations 3
time step continuity errors : sum local = 6.22449e-12, global = 1.53891e-13, cumulative = -2.01853e-09
GAMG:  Solving for p, Initial residual = 0.322221, Final residual = 0.0166011, No Iterations 4
time step continuity errors : sum local = 8.59126e-13, global = 7.17613e-14, cumulative = -2.01845e-09
GAMG:  Solving for p, Initial residual = 0.0878553, Final residual = 0.00778282, No Iterations 7
time step continuity errors : sum local = 3.67474e-13, global = 3.05491e-14, cumulative = -2.01842e-09
GAMG:  Solving for p, Initial residual = 0.0644609, Final residual = 4.64513e-07, No Iterations 49
time step continuity errors : sum local = 2.03513e-17, global = 4.54893e-19, cumulative = -2.01842e-09
ExecutionTime = 0.29 s  ClockTime = 0 s

Time = 0.26

Courant Number mean: 0.00499957 max: 0.00974995
smoothSolver:  Solving for Ux, Initial residual = 5.02674e-06, Final residual = 5.02674e-06, No Iterations 0
smoothSolver:  Solving for Uy, Initial residual = 0.515606, Final residual = 9.52514e-06, No Iterations 101
GAMG:  Solving for p, Initial residual = 0.732984, Final residual = 0.0621084, No Iterations 3
time step continuity errors : sum local = 5.1611e-12, global = 5.23391e-14, cumulative = -2.01837e-09
GAMG:  Solving for p, Initial residual = 0.662592, Final residual = 0.0512927, No Iterations 3
time step continuity errors : sum local = 4.07983e-12, global = -6.65422e-14, cumulative = -2.01844e-09
GAMG:  Solving for p, Initial residual = 0.272843, Final residual = 0.0158932, No Iterations 4
time step continuity errors : sum local = 6.26953e-13, global = -5.83491e-14, cumulative = -2.0185e-09
GAMG:  Solving for p, Initial residual = 0.0755772, Final residual = 0.0053607, No Iterations 5
time step continuity errors : sum local = 2.06432e-13, global = -2.24309e-14, cumulative = -2.01852e-09
GAMG:  Solving for p, Initial residual = 0.0624875, Final residual = 7.68175e-07, No Iterations 43
time step continuity errors : sum local = 2.93163e-17, global = 6.88354e-19, cumulative = -2.01852e-09
ExecutionTime = 0.31 s  ClockTime = 0 s

Time = 0.27

Courant Number mean: 0.00499959 max: 0.00974995
smoothSolver:  Solving for Ux, Initial residual = 4.73662e-06, Final residual = 4.73662e-06, No Iterations 0
smoothSolver:  Solving for Uy, Initial residual = 0.466437, Final residual = 9.41431e-06, No Iterations 102
GAMG:  Solving for p, Initial residual = 0.654408, Final residual = 0.0592383, No Iterations 3
time step continuity errors : sum local = 3.59622e-12, global = 1.2959e-13, cumulative = -2.01839e-09
GAMG:  Solving for p, Initial residual = 0.584347, Final residual = 0.0495278, No Iterations 3
time step continuity errors : sum local = 2.88975e-12, global = 1.16443e-13, cumulative = -2.01827e-09
GAMG:  Solving for p, Initial residual = 0.213237, Final residual = 0.0136666, No Iterations 4
time step continuity errors : sum local = 4.79777e-13, global = 5.24686e-14, cumulative = -2.01822e-09
GAMG:  Solving for p, Initial residual = 0.0732549, Final residual = 0.00602013, No Iterations 8
time step continuity errors : sum local = 2.01493e-13, global = 1.88587e-14, cumulative = -2.0182e-09
GAMG:  Solving for p, Initial residual = 0.0612636, Final residual = 7.48517e-07, No Iterations 23
time step continuity errors : sum local = 2.34732e-17, global = 1.53917e-19, cumulative = -2.0182e-09
ExecutionTime = 0.32 s  ClockTime = 0 s

Time = 0.28

Courant Number mean: 0.00499962 max: 0.00974995
smoothSolver:  Solving for Ux, Initial residual = 4.46322e-06, Final residual = 4.46322e-06, No Iterations 0
smoothSolver:  Solving for Uy, Initial residual = 0.421577, Final residual = 9.07395e-06, No Iterations 103
GAMG:  Solving for p, Initial residual = 0.598847, Final residual = 0.0585104, No Iterations 3
time step continuity errors : sum local = 2.60534e-12, global = 2.15233e-14, cumulative = -2.01818e-09
GAMG:  Solving for p, Initial residual = 0.533682, Final residual = 0.0477315, No Iterations 3
time step continuity errors : sum local = 2.0439e-12, global = -3.78456e-14, cumulative = -2.01822e-09
GAMG:  Solving for p, Initial residual = 0.182498, Final residual = 0.010906, No Iterations 4
time step continuity errors : sum local = 3.16122e-13, global = -3.44274e-14, cumulative = -2.01825e-09
GAMG:  Solving for p, Initial residual = 0.0663505, Final residual = 0.00449243, No Iterations 4
time step continuity errors : sum local = 1.28486e-13, global = -1.68925e-14, cumulative = -2.01827e-09
GAMG:  Solving for p, Initial residual = 0.0596256, Final residual = 6.71293e-07, No Iterations 21
time step continuity errors : sum local = 1.91005e-17, global = 5.74967e-19, cumulative = -2.01827e-09
ExecutionTime = 0.32 s  ClockTime = 0 s

Time = 0.29

Courant Number mean: 0.00499964 max: 0.00974996
smoothSolver:  Solving for Ux, Initial residual = 4.20559e-06, Final residual = 4.20559e-06, No Iterations 0
smoothSolver:  Solving for Uy, Initial residual = 0.37105, Final residual = 9.45059e-06, No Iterations 102
GAMG:  Solving for p, Initial residual = 0.501659, Final residual = 0.0494387, No Iterations 3
time step continuity errors : sum local = 1.70885e-12, global = 6.39594e-14, cumulative = -2.01821e-09
GAMG:  Solving for p, Initial residual = 0.441757, Final residual = 0.0408747, No Iterations 3
time step continuity errors : sum local = 1.36678e-12, global = 6.37531e-14, cumulative = -2.01814e-09
GAMG:  Solving for p, Initial residual = 0.13786, Final residual = 0.00925328, No Iterations 4
time step continuity errors : sum local = 2.44681e-13, global = 3.54483e-14, cumulative = -2.01811e-09
GAMG:  Solving for p, Initial residual = 0.0635105, Final residual = 0.00467977, No Iterations 6
time step continuity errors : sum local = 1.19035e-13, global = 1.31768e-14, cumulative = -2.01809e-09
GAMG:  Solving for p, Initial residual = 0.0573348, Final residual = 9.64458e-07, No Iterations 28
time step continuity errors : sum local = 2.34769e-17, global = -2.87828e-18, cumulative = -2.01809e-09
ExecutionTime = 0.33 s  ClockTime = 0 s

Time = 0.3

Courant Number mean: 0.00499966 max: 0.00974996
smoothSolver:  Solving for Ux, Initial residual = 3.96283e-06, Final residual = 3.96283e-06, No Iterations 0
smoothSolver:  Solving for Uy, Initial residual = 0.33602, Final residual = 9.92252e-06, No Iterations 102
GAMG:  Solving for p, Initial residual = 0.447812, Final residual = 0.0211847, No Iterations 4
time step continuity errors : sum local = 5.81541e-13, global = -3.14223e-15, cumulative = -2.0181e-09
GAMG:  Solving for p, Initial residual = 0.422231, Final residual = 0.0190124, No Iterations 4
time step continuity errors : sum local = 5.10479e-13, global = 1.06742e-14, cumulative = -2.01809e-09
GAMG:  Solving for p, Initial residual = 0.0841276, Final residual = 0.00754033, No Iterations 4
time step continuity errors : sum local = 1.69685e-13, global = -5.71976e-15, cumulative = -2.01809e-09
GAMG:  Solving for p, Initial residual = 0.0563284, Final residual = 0.00303623, No Iterations 3
time step continuity errors : sum local = 6.77444e-14, global = -5.40891e-15, cumulative = -2.0181e-09
GAMG:  Solving for p, Initial residual = 0.0558698, Final residual = 9.46588e-07, No Iterations 26
time step continuity errors : sum local = 2.08336e-17, global = -1.75583e-18, cumulative = -2.0181e-09
ExecutionTime = 0.34 s  ClockTime = 0 s

Time = 0.31

Courant Number mean: 0.00499968 max: 0.00974996
smoothSolver:  Solving for Ux, Initial residual = 3.73408e-06, Final residual = 3.73408e-06, No Iterations 0
smoothSolver:  Solving for Uy, Initial residual = 0.306232, Final residual = 9.585e-06, No Iterations 102
GAMG:  Solving for p, Initial residual = 0.373766, Final residual = 0.0171584, No Iterations 4
time step continuity errors : sum local = 4.00268e-13, global = 3.08515e-14, cumulative = -2.01807e-09
GAMG:  Solving for p, Initial residual = 0.348177, Final residual = 0.0144604, No Iterations 4
time step continuity errors : sum local = 3.29921e-13, global = 2.27034e-14, cumulative = -2.01804e-09
GAMG:  Solving for p, Initial residual = 0.0717666, Final residual = 0.0047743, No Iterations 4
time step continuity errors : sum local = 9.74342e-14, global = 9.3046e-15, cumulative = -2.01803e-09
GAMG:  Solving for p, Initial residual = 0.0550716, Final residual = 0.00488963, No Iterations 3
time step continuity errors : sum local = 9.70194e-14, global = -3.80991e-15, cumulative = -2.01804e-09
GAMG:  Solving for p, Initial residual = 0.0540734, Final residual = 3.01427e-07, No Iterations 29
time step continuity errors : sum local = 5.87587e-18, global = 3.72693e-20, cumulative = -2.01804e-09
ExecutionTime = 0.36 s  ClockTime = 0 s

Time = 0.32

Courant Number mean: 0.0049997 max: 0.00974996
smoothSolver:  Solving for Ux, Initial residual = 3.51853e-06, Final residual = 3.51853e-06, No Iterations 0
smoothSolver:  Solving for Uy, Initial residual = 0.274509, Final residual = 9.78938e-06, No Iterations 101
GAMG:  Solving for p, Initial residual = 0.309774, Final residual = 0.015327, No Iterations 4
time step continuity errors : sum local = 2.98613e-13, global = 9.8112e-16, cumulative = -2.01804e-09
GAMG:  Solving for p, Initial residual = 0.293923, Final residual = 0.0129514, No Iterations 4
time step continuity errors : sum local = 2.47107e-13, global = -1.94834e-14, cumulative = -2.01806e-09
GAMG:  Solving for p, Initial residual = 0.0672788, Final residual = 0.00487324, No Iterations 4
time step continuity errors : sum local = 8.66016e-14, global = 1.57673e-15, cumulative = -2.01805e-09
GAMG:  Solving for p, Initial residual = 0.0521952, Final residual = 0.00434511, No Iterations 2
time step continuity errors : sum local = 7.67661e-14, global = 1.18144e-16, cumulative = -2.01805e-09
GAMG:  Solving for p, Initial residual = 0.0533767, Final residual = 8.39378e-07, No Iterations 31
time step continuity errors : sum local = 1.45667e-17, global = 2.89718e-19, cumulative = -2.01805e-09
ExecutionTime = 0.36 s  ClockTime = 0 s

Time = 0.33

Courant Number mean: 0.00499972 max: 0.00974996
smoothSolver:  Solving for Ux, Initial residual = 3.31542e-06, Final residual = 3.31542e-06, No Iterations 0
smoothSolver:  Solving for Uy, Initial residual = 0.255782, Final residual = 9.12648e-06, No Iterations 101
GAMG:  Solving for p, Initial residual = 0.267546, Final residual = 0.0122421, No Iterations 4
time step continuity errors : sum local = 2.11193e-13, global = 1.24904e-14, cumulative = -2.01804e-09
GAMG:  Solving for p, Initial residual = 0.249448, Final residual = 0.010405, No Iterations 4
time step continuity errors : sum local = 1.7583e-13, global = 6.50797e-15, cumulative = -2.01804e-09
GAMG:  Solving for p, Initial residual = 0.0605352, Final residual = 0.00394825, No Iterations 3
time step continuity errors : sum local = 6.34069e-14, global = 3.44589e-15, cumulative = -2.01803e-09
GAMG:  Solving for p, Initial residual = 0.0517233, Final residual = 0.00392747, No Iterations 2
time step continuity errors : sum local = 6.17222e-14, global = 3.36693e-15, cumulative = -2.01803e-09
GAMG:  Solving for p, Initial residual = 0.0507004, Final residual = 5.34258e-07, No Iterations 30
time step continuity errors : sum local = 8.20444e-18, global = 1.12893e-19, cumulative = -2.01803e-09
ExecutionTime = 0.37 s  ClockTime = 0 s

Time = 0.34

Courant Number mean: 0.00499973 max: 0.00974997
smoothSolver:  Solving for Ux, Initial residual = 3.12403e-06, Final residual = 3.12403e-06, No Iterations 0
smoothSolver:  Solving for Uy, Initial residual = 0.236171, Final residual = 9.68447e-06, No Iterations 100
GAMG:  Solving for p, Initial residual = 0.227181, Final residual = 0.0109765, No Iterations 4
time step continuity errors : sum local = 1.64511e-13, global = 3.21695e-15, cumulative = -2.01803e-09
GAMG:  Solving for p, Initial residual = 0.216688, Final residual = 0.0101376, No Iterations 4
time step continuity errors : sum local = 1.4893e-13, global = 1.69611e-15, cumulative = -2.01802e-09
GAMG:  Solving for p, Initial residual = 0.0584483, Final residual = 0.0051983, No Iterations 3
time step continuity errors : sum local = 7.37869e-14, global = -3.69192e-15, cumulative = -2.01803e-09
GAMG:  Solving for p, Initial residual = 0.0492996, Final residual = 0.00413184, No Iterations 2
time step continuity errors : sum local = 5.7754e-14, global = -1.21072e-15, cumulative = -2.01803e-09
GAMG:  Solving for p, Initial residual = 0.0500903, Final residual = 4.66874e-07, No Iterations 19
time step continuity errors : sum local = 6.41366e-18, global = 3.39441e-19, cumulative = -2.01803e-09
ExecutionTime = 0.38 s  ClockTime = 0 s

Time = 0.35

Courant Number mean: 0.00499975 max: 0.00974997
smoothSolver:  Solving for Ux, Initial residual = 2.9437e-06, Final residual = 2.9437e-06, No Iterations 0
smoothSolver:  Solving for Uy, Initial residual = 0.241422, Final residual = 9.5145e-06, No Iterations 101
GAMG:  Solving for p, Initial residual = 0.224882, Final residual = 0.0105971, No Iterations 4
time step continuity errors : sum local = 1.43971e-13, global = 1.15059e-14, cumulative = -2.01802e-09
GAMG:  Solving for p, Initial residual = 0.211283, Final residual = 0.00914582, No Iterations 4
time step continuity errors : sum local = 1.21798e-13, global = 1.06593e-14, cumulative = -2.01801e-09
GAMG:  Solving for p, Initial residual = 0.0549161, Final residual = 0.00376997, No Iterations 3
time step continuity errors : sum local = 4.84095e-14, global = 5.19839e-15, cumulative = -2.018e-09
GAMG:  Solving for p, Initial residual = 0.048632, Final residual = 0.00417119, No Iterations 2
time step continuity errors : sum local = 5.21647e-14, global = 3.70766e-15, cumulative = -2.018e-09
GAMG:  Solving for p, Initial residual = 0.0480917, Final residual = 7.49315e-07, No Iterations 27
time step continuity errors : sum local = 9.22445e-18, global = -4.37944e-20, cumulative = -2.018e-09
ExecutionTime = 0.39 s  ClockTime = 0 s

Time = 0.36

Courant Number mean: 0.00499976 max: 0.00974997
smoothSolver:  Solving for Ux, Initial residual = 2.77377e-06, Final residual = 2.77377e-06, No Iterations 0
smoothSolver:  Solving for Uy, Initial residual = 0.198592, Final residual = 9.42989e-06, No Iterations 97
GAMG:  Solving for p, Initial residual = 0.158904, Final residual = 0.00755851, No Iterations 4
time step continuity errors : sum local = 8.9384e-14, global = 2.27019e-15, cumulative = -2.01799e-09
GAMG:  Solving for p, Initial residual = 0.151291, Final residual = 0.0149394, No Iterations 3
time step continuity errors : sum local = 1.73309e-13, global = -7.67939e-15, cumulative = -2.018e-09
GAMG:  Solving for p, Initial residual = 0.0587251, Final residual = 0.00582387, No Iterations 3
time step continuity errors : sum local = 6.58835e-14, global = 2.14227e-15, cumulative = -2.018e-09
GAMG:  Solving for p, Initial residual = 0.0463639, Final residual = 0.00349235, No Iterations 2
time step continuity errors : sum local = 3.90742e-14, global = 1.35538e-15, cumulative = -2.018e-09
GAMG:  Solving for p, Initial residual = 0.0471517, Final residual = 5.79667e-07, No Iterations 29
time step continuity errors : sum local = 6.41288e-18, global = 1.40423e-19, cumulative = -2.018e-09
ExecutionTime = 0.4 s  ClockTime = 0 s

Time = 0.37

Courant Number mean: 0.00499978 max: 0.00974997
smoothSolver:  Solving for Ux, Initial residual = 2.61365e-06, Final residual = 2.61365e-06, No Iterations 0
smoothSolver:  Solving for Uy, Initial residual = 0.200115, Final residual = 9.90279e-06, No Iterations 97
GAMG:  Solving for p, Initial residual = 0.158774, Final residual = 0.0067689, No Iterations 4
time step continuity errors : sum local = 7.25777e-14, global = 5.48153e-15, cumulative = -2.01799e-09
GAMG:  Solving for p, Initial residual = 0.14991, Final residual = 0.00622699, No Iterations 4
time step continuity errors : sum local = 6.54671e-14, global = 1.75635e-16, cumulative = -2.01799e-09
GAMG:  Solving for p, Initial residual = 0.0490332, Final residual = 0.0044058, No Iterations 3
time step continuity errors : sum local = 4.51015e-14, global = 5.98952e-17, cumulative = -2.01799e-09
GAMG:  Solving for p, Initial residual = 0.0459628, Final residual = 0.00456309, No Iterations 2
time step continuity errors : sum local = 4.57255e-14, global = 2.05218e-15, cumulative = -2.01799e-09
GAMG:  Solving for p, Initial residual = 0.045218, Final residual = 2.22345e-07, No Iterations 30
time step continuity errors : sum local = 2.27289e-18, global = -2.01438e-22, cumulative = -2.01799e-09
ExecutionTime = 0.4 s  ClockTime = 0 s

Time = 0.38

Courant Number mean: 0.00499979 max: 0.00974997
smoothSolver:  Solving for Ux, Initial residual = 2.46277e-06, Final residual = 2.46277e-06, No Iterations 0
smoothSolver:  Solving for Uy, Initial residual = 0.183782, Final residual = 9.23499e-06, No Iterations 95
GAMG:  Solving for p, Initial residual = 0.130253, Final residual = 0.00588439, No Iterations 4
time step continuity errors : sum local = 5.58342e-14, global = 2.66747e-15, cumulative = -2.01799e-09
GAMG:  Solving for p, Initial residual = 0.123558, Final residual = 0.0113023, No Iterations 3
time step continuity errors : sum local = 1.05267e-13, global = -3.25458e-15, cumulative = -2.01799e-09
GAMG:  Solving for p, Initial residual = 0.0519235, Final residual = 0.00421584, No Iterations 3
time step continuity errors : sum local = 3.83027e-14, global = -2.10968e-15, cumulative = -2.01799e-09
GAMG:  Solving for p, Initial residual = 0.0439315, Final residual = 0.00322296, No Iterations 2
time step continuity errors : sum local = 2.88293e-14, global = -1.9689e-15, cumulative = -2.018e-09
GAMG:  Solving for p, Initial residual = 0.0443564, Final residual = 7.02333e-07, No Iterations 35
time step continuity errors : sum local = 6.23214e-18, global = 4.4035e-19, cumulative = -2.018e-09
ExecutionTime = 0.42 s  ClockTime = 0 s

Time = 0.39

Courant Number mean: 0.0049998 max: 0.00974998
smoothSolver:  Solving for Ux, Initial residual = 2.3206e-06, Final residual = 2.3206e-06, No Iterations 0
smoothSolver:  Solving for Uy, Initial residual = 0.187082, Final residual = 9.12593e-06, No Iterations 96
GAMG:  Solving for p, Initial residual = 0.132536, Final residual = 0.00536783, No Iterations 4
time step continuity errors : sum local = 4.61391e-14, global = 4.53744e-15, cumulative = -2.01799e-09
GAMG:  Solving for p, Initial residual = 0.125909, Final residual = 0.0122067, No Iterations 3
time step continuity errors : sum local = 1.02881e-13, global = 5.32092e-15, cumulative = -2.01799e-09
GAMG:  Solving for p, Initial residual = 0.0483091, Final residual = 0.00367358, No Iterations 3
time step continuity errors : sum local = 3.02136e-14, global = 5.00707e-15, cumulative = -2.01798e-09
GAMG:  Solving for p, Initial residual = 0.04334, Final residual = 0.00356378, No Iterations 3
time step continuity errors : sum local = 2.86223e-14, global = -1.16754e-15, cumulative = -2.01798e-09
GAMG:  Solving for p, Initial residual = 0.042391, Final residual = 6.64631e-07, No Iterations 20
time step continuity errors : sum local = 5.233e-18, global = -4.23046e-19, cumulative = -2.01798e-09
ExecutionTime = 0.42 s  ClockTime = 0 s

Time = 0.4

Courant Number mean: 0.00499981 max: 0.00974998
smoothSolver:  Solving for Ux, Initial residual = 2.18664e-06, Final residual = 2.18664e-06, No Iterations 0
smoothSolver:  Solving for Uy, Initial residual = 0.161959, Final residual = 9.97673e-06, No Iterations 89
GAMG:  Solving for p, Initial residual = 0.10536, Final residual = 0.0094466, No Iterations 3
time step continuity errors : sum local = 7.193e-14, global = -2.58975e-16, cumulative = -2.01798e-09
GAMG:  Solving for p, Initial residual = 0.0954638, Final residual = 0.00639551, No Iterations 3
time step continuity errors : sum local = 4.78497e-14, global = -9.33799e-16, cumulative = -2.01798e-09
GAMG:  Solving for p, Initial residual = 0.0465702, Final residual = 0.00345141, No Iterations 3
time step continuity errors : sum local = 2.51769e-14, global = -1.61019e-15, cumulative = -2.01799e-09
GAMG:  Solving for p, Initial residual = 0.0410847, Final residual = 0.00295707, No Iterations 2
time step continuity errors : sum local = 2.12337e-14, global = -2.2557e-16, cumulative = -2.01799e-09
GAMG:  Solving for p, Initial residual = 0.0415388, Final residual = 9.86071e-07, No Iterations 40
time step continuity errors : sum local = 7.00473e-18, global = 3.66048e-19, cumulative = -2.01799e-09
ExecutionTime = 0.44 s  ClockTime = 0 s

Time = 0.41

Courant Number mean: 0.00499982 max: 0.00974998
round equal to: round equal to: 1round equal to: 1round equal to: 1round equal to: 1round equal to: 1round equal to: 1round equal to: 1round equal to: 1round equal to: 1round equal to: 11round equal to: 1round equal to: 1round equal to: 1round equal to: 1round equal to: 1round equal to: 1round equal to: 1round equal to: 1round equal to: 1numProcs 2 nprocs 2
Using all 2 for LAMMPS simulation
LAMMPS (14 May 2016)
Created triclinic box = (0 0 0) to (20 20 20) with tilt (0 0 0)
  1 by 1 by 2 MPI processor grid
Read molecule polymer:
  15 atoms with 2 types
  14 bonds with 3 types
  0 angles with 0 types
  0 dihedrals with 0 types
  0 impropers with 0 types
Created 24000 atoms
Created 0 atoms
24000 atoms in group water
0 atoms in group polymer
Setting atom values ...
  24000 settings made for type
WARNING: Resetting reneighboring criteria during minimization (../min.cpp:168)
WARNING: Use special bonds = 0,1,1 with bond style fene (../bond_fene.cpp:188)
Neighbor list info ...
  1 neighbor list requests
  update every 1 steps, delay 0 steps, check yes
  max neighbors/atom: 2000, page size: 100000
  master list distance cutoff = 2
  ghost atom cutoff = 5
  binsize = 1, bins = 20 20 20
Setting up cg style minimization ...
  Unit style: lj
Memory usage per processor = 24.0367 Mbytes
Step Temp E_pair E_mol TotEng Press 
       0            0    7.8441595            0    7.8441595    18.844752 
      36            0    4.2162452            0    4.2162452    16.613297 
Loop time of 4.21262 on 2 procs for 36 steps with 24000 atoms

98.4% CPU use with 2 MPI tasks x no OpenMP threads

Minimization stats:
  Stopping criterion = energy tolerance
  Energy initial, next-to-last, final = 
         7.84415951736      4.21627648972       4.2162452417
  Force two-norm initial, final = 6804.29 4029.97
  Force max component initial, final = 159.709 92.4734
  Final line search alpha, max atom move = 1.50171e-05 0.00138868
  Iterations, force evaluations = 36 122

MPI task timing breakdown:
Section |  min time  |  avg time  |  max time  |%varavg| %total
---------------------------------------------------------------
Pair    | 3.2216     | 3.2778     | 3.3339     |   3.1 | 77.81
Bond    | 0.00015926 | 0.00017071 | 0.00018215 |   0.1 |  0.00
Neigh   | 0.15998    | 0.15999    | 0.16       |   0.0 |  3.80
Comm    | 0.66062    | 0.71672    | 0.77282    |   6.6 | 17.01
Output  | 0          | 0          | 0          |   0.0 |  0.00
Modify  | 0          | 0          | 0          |   0.0 |  0.00
Other   |            | 0.05795    |            |       |  1.38

Nlocal:    12000 ave 12120 max 11880 min
Histogram: 1 0 0 0 0 0 0 0 0 1
Nghost:    41964 ave 42084 max 41844 min
Histogram: 1 0 0 0 0 0 0 0 0 1
Neighs:    600304 ave 609048 max 591559 min
Histogram: 1 0 0 0 0 0 0 0 0 1

Total # of neighbors = 1200607
Ave neighs/atom = 50.0253
Ave special neighs/atom = 0
Neighbor list builds = 2
Dangerous builds not checked
WARNING: Use special bonds = 0,1,1 with bond style fene (../bond_fene.cpp:188)
Neighbor list info ...
  1 neighbor list requests
  update every 6 steps, delay 0 steps, check no
  max neighbors/atom: 2000, page size: 100000
  master list distance cutoff = 2
  ghost atom cutoff = 5
  binsize = 1, bins = 20 20 20
Setting up Verlet run ...
  Unit style  : lj
  Current step: 36
  Time step   : 0.01
Memory usage per processor = 19.052 Mbytes
Step Temp E_pair E_mol TotEng Press 
      36            0    4.2162452            0    4.2162452    16.711674 
Loop time of 1.90735e-06 on 2 procs for 0 steps with 24000 atoms

0.0% CPU use with 2 MPI tasks x no OpenMP threads

MPI task timing breakdown:
Section |  min time  |  avg time  |  max time  |%varavg| %total
---------------------------------------------------------------
Pair    | 0          | 0          | 0          |   0.0 |  0.00
Bond    | 0          | 0          | 0          |   0.0 |  0.00
Neigh   | 0          | 0          | 0          |   0.0 |  0.00
Comm    | 0          | 0          | 0          |   0.0 |  0.00
Output  | 0          | 0          | 0          |   0.0 |  0.00
Modify  | 0          | 0          | 0          |   0.0 |  0.00
Other   |            | 1.907e-06  |            |       |100.00

Nlocal:    12000 ave 12101 max 11899 min
Histogram: 1 0 0 0 0 0 0 0 0 1
Nghost:    41971 ave 42072 max 41870 min
Histogram: 1 0 0 0 0 0 0 0 0 1
Neighs:    599470 ave 607121 max 591820 min
Histogram: 1 0 0 0 0 0 0 0 0 1

Total # of neighbors = 1198941
Ave neighs/atom = 49.9559
Ave special neighs/atom = 0
Neighbor list builds = 0
Dangerous builds not checked
WARNING: Use special bonds = 0,1,1 with bond style fene (../bond_fene.cpp:188)
Setting up Verlet run ...
  Unit style  : lj
  Current step: 36
  Time step   : 0.005
Memory usage per processor = 19.0672 Mbytes
Step Temp Press Pxy visc vave 
      36   0.44450588    17.950247   0.14274372   -1.4274372            0 
Loop time of 2.14577e-06 on 2 procs for 0 steps with 24000 atoms

0.0% CPU use with 2 MPI tasks x no OpenMP threads

MPI task timing breakdown:
Section |  min time  |  avg time  |  max time  |%varavg| %total
---------------------------------------------------------------
Pair    | 0          | 0          | 0          |   0.0 |  0.00
Bond    | 0          | 0          | 0          |   0.0 |  0.00
Neigh   | 0          | 0          | 0          |   0.0 |  0.00
Comm    | 0          | 0          | 0          |   0.0 |  0.00
Output  | 0          | 0          | 0          |   0.0 |  0.00
Modify  | 0          | 0          | 0          |   0.0 |  0.00
Other   |            | 2.146e-06  |            |       |100.00

Nlocal:    12000 ave 12101 max 11899 min
Histogram: 1 0 0 0 0 0 0 0 0 1
Nghost:    41971 ave 42072 max 41870 min
Histogram: 1 0 0 0 0 0 0 0 0 1
Neighs:    599470 ave 607121 max 591820 min
Histogram: 1 0 0 0 0 0 0 0 0 1

Total # of neighbors = 1198941
Ave neighs/atom = 49.9559
Ave special neighs/atom = 0
Neighbor list builds = 0
Dangerous builds not checked
hereherehereherehereherehereherehere00hereherehereherehereherehereherehereherehereherehereherehereherehereherehereherehereherehereherehereherehereherehereherehereherehereherehereherehereherehereherehereherehereherehereherehereherehereherehereherehereherehereherehereherehereherehereherehereherehereherehereherehereherehereherehereherehereherehereherehereherehereherehereherehereherehereherehereherehereherehereherehereherehereherehereherehereherehereherehereherehereherehereherehereherehereherehereherehereherehereherehereherehereherehereherehereherehereherehereherehereherehereherehereherehereherehereherehereherehereherehereherehereherehereherehereherehereherehereherehereherehereherehereherehereherehereherehereherehereherehereherehereherehereherehereherehereherehereherehereherehereherehereherehereTotal wall time: 0:00:04
round equal to: 1round equal to: 1round equal to: 1round equal to: 1round equal to: 1round equal to: 1round equal to: 1round equal to: 1round equal to: 1round equal to: 1numProcs 2 nprocs 2
Using all 2 for LAMMPS simulation
round equal to: 1round equal to: 1round equal to: 1round equal to: 1round equal to: 1round equal to: 1round equal to: 1round equal to: 1round equal to: 1round equal to: 1LAMMPS (14 May 2016)
Created triclinic box = (0 0 0) to (20 20 20) with tilt (0 0 0)
  1 by 1 by 2 MPI processor grid
Read molecule polymer:
  15 atoms with 2 types
  14 bonds with 3 types
  0 angles with 0 types
  0 dihedrals with 0 types
  0 impropers with 0 types
Created 24000 atoms
Created 0 atoms
24000 atoms in group water
0 atoms in group polymer
Setting atom values ...
  24000 settings made for type
WARNING: Resetting reneighboring criteria during minimization (../min.cpp:168)
WARNING: Use special bonds = 0,1,1 with bond style fene (../bond_fene.cpp:188)
Neighbor list info ...
  1 neighbor list requests
  update every 1 steps, delay 0 steps, check yes
  max neighbors/atom: 2000, page size: 100000
  master list distance cutoff = 2
  ghost atom cutoff = 5
  binsize = 1, bins = 20 20 20
Setting up cg style minimization ...
  Unit style: lj
Memory usage per processor = 24.0367 Mbytes
Step Temp E_pair E_mol TotEng Press 
       0            0    7.8441595            0    7.8441595    18.844752 
      36            0    4.2162452            0    4.2162452    16.613297 
Loop time of 3.7546 on 2 procs for 36 steps with 24000 atoms

98.8% CPU use with 2 MPI tasks x no OpenMP threads

Minimization stats:
  Stopping criterion = energy tolerance
  Energy initial, next-to-last, final = 
         7.84415951736      4.21627648972       4.2162452417
  Force two-norm initial, final = 6804.29 4029.97
  Force max component initial, final = 159.709 92.4734
  Final line search alpha, max atom move = 1.50171e-05 0.00138868
  Iterations, force evaluations = 36 122

MPI task timing breakdown:
Section |  min time  |  avg time  |  max time  |%varavg| %total
---------------------------------------------------------------
Pair    | 2.6498     | 2.8749     | 3.0999     |  13.3 | 76.57
Bond    | 0.00018573 | 0.0001874  | 0.00018907 |   0.0 |  0.00
Neigh   | 0.15328    | 0.15339    | 0.1535     |   0.0 |  4.09
Comm    | 0.44927    | 0.6739     | 0.89852    |  27.4 | 17.95
Output  | 0          | 0          | 0          |   0.0 |  0.00
Modify  | 0          | 0          | 0          |   0.0 |  0.00
Other   |            | 0.05226    |            |       |  1.39

Nlocal:    12000 ave 12120 max 11880 min
Histogram: 1 0 0 0 0 0 0 0 0 1
Nghost:    41964 ave 42084 max 41844 min
Histogram: 1 0 0 0 0 0 0 0 0 1
Neighs:    600304 ave 609048 max 591559 min
Histogram: 1 0 0 0 0 0 0 0 0 1

Total # of neighbors = 1200607
Ave neighs/atom = 50.0253
Ave special neighs/atom = 0
Neighbor list builds = 2
Dangerous builds not checked
WARNING: Use special bonds = 0,1,1 with bond style fene (../bond_fene.cpp:188)
Neighbor list info ...
  1 neighbor list requests
  update every 6 steps, delay 0 steps, check no
  max neighbors/atom: 2000, page size: 100000
  master list distance cutoff = 2
  ghost atom cutoff = 5
  binsize = 1, bins = 20 20 20
Setting up Verlet run ...
  Unit style  : lj
  Current step: 36
  Time step   : 0.01
Memory usage per processor = 19.052 Mbytes
Step Temp E_pair E_mol TotEng Press 
      36            0    4.2162452            0    4.2162452    16.711674 
Loop time of 2.74181e-06 on 2 procs for 0 steps with 24000 atoms

0.0% CPU use with 2 MPI tasks x no OpenMP threads

MPI task timing breakdown:
Section |  min time  |  avg time  |  max time  |%varavg| %total
---------------------------------------------------------------
Pair    | 0          | 0          | 0          |   0.0 |  0.00
Bond    | 0          | 0          | 0          |   0.0 |  0.00
Neigh   | 0          | 0          | 0          |   0.0 |  0.00
Comm    | 0          | 0          | 0          |   0.0 |  0.00
Output  | 0          | 0          | 0          |   0.0 |  0.00
Modify  | 0          | 0          | 0          |   0.0 |  0.00
Other   |            | 2.742e-06  |            |       |100.00

Nlocal:    12000 ave 12101 max 11899 min
Histogram: 1 0 0 0 0 0 0 0 0 1
Nghost:    41971 ave 42072 max 41870 min
Histogram: 1 0 0 0 0 0 0 0 0 1
Neighs:    599470 ave 607121 max 591820 min
Histogram: 1 0 0 0 0 0 0 0 0 1

Total # of neighbors = 1198941
Ave neighs/atom = 49.9559
Ave special neighs/atom = 0
Neighbor list builds = 0
Dangerous builds not checked
WARNING: Use special bonds = 0,1,1 with bond style fene (../bond_fene.cpp:188)
Setting up Verlet run ...
  Unit style  : lj
  Current step: 36
  Time step   : 0.005
Memory usage per processor = 19.0672 Mbytes
Step Temp Press Pxy visc vave 
      36   0.44450588    17.950247   0.14274372   -1.4274372            0 
Loop time of 2.86102e-06 on 2 procs for 0 steps with 24000 atoms

0.0% CPU use with 2 MPI tasks x no OpenMP threads

MPI task timing breakdown:
Section |  min time  |  avg time  |  max time  |%varavg| %total
---------------------------------------------------------------
Pair    | 0          | 0          | 0          |   0.0 |  0.00
Bond    | 0          | 0          | 0          |   0.0 |  0.00
Neigh   | 0          | 0          | 0          |   0.0 |  0.00
Comm    | 0          | 0          | 0          |   0.0 |  0.00
Output  | 0          | 0          | 0          |   0.0 |  0.00
Modify  | 0          | 0          | 0          |   0.0 |  0.00
Other   |            | 2.861e-06  |            |       |100.00

Nlocal:    12000 ave 12101 max 11899 min
Histogram: 1 0 0 0 0 0 0 0 0 1
Nghost:    41971 ave 42072 max 41870 min
Histogram: 1 0 0 0 0 0 0 0 0 1
Neighs:    599470 ave 607121 max 591820 min
Histogram: 1 0 0 0 0 0 0 0 0 1

Total # of neighbors = 1198941
Ave neighs/atom = 49.9559
Ave special neighs/atom = 0
Neighbor list builds = 0
Dangerous builds not checked
herehereherehereherehereherehereherehereherehereherehereherehereherehereherehereherehereherehereherehereherehereherehereherehereherehereherehereherehereherehereherehereherehereherehereherehereherehereherehereherehereherehereherehereherehereherehereherehereherehereherehereherehereherehereherehereherehereherehereherehereherehereherehereherehereherehereherehereherehereherehereherehereherehereherehere00herehereherehereherehereherehereherehereherehereherehereherehereherehereherehereherehereherehereherehereherehereherehereherehereherehereherehereherehereherehereherehereherehereherehereherehereherehereherehereherehereherehereherehereherehereherehereherehereherehereherehereherehereherehereherehereherehereherehereherehereherehereherehereherehereherehereherehereherehereherehereherehereherehereherehereround equal to: 1round equal to: 1round equal to: 1round equal to: 1round equal to: 1round equal to: 1round equal to: 1round equal to: 1round equal to: 1round equal to: 1Total wall time: 0:00:04
round equal to: 1round equal to: 1round equal to: 1round equal to: 1round equal to: 1round equal to: 1round equal to: 1round equal to: 1round equal to: 1round equal to: 1numProcs 2 nprocs 2
Using all 2 for LAMMPS simulation
LAMMPS (14 May 2016)
Created triclinic box = (0 0 0) to (20 20 20) with tilt (0 0 0)
  1 by 1 by 2 MPI processor grid
Read molecule polymer:
  15 atoms with 2 types
  14 bonds with 3 types
  0 angles with 0 types
  0 dihedrals with 0 types
  0 impropers with 0 types
Created 24000 atoms
Created 0 atoms
24000 atoms in group water
0 atoms in group polymer
Setting atom values ...
  24000 settings made for type
WARNING: Resetting reneighboring criteria during minimization (../min.cpp:168)
WARNING: Use special bonds = 0,1,1 with bond style fene (../bond_fene.cpp:188)
Neighbor list info ...
  1 neighbor list requests
  update every 1 steps, delay 0 steps, check yes
  max neighbors/atom: 2000, page size: 100000
  master list distance cutoff = 2
  ghost atom cutoff = 5
  binsize = 1, bins = 20 20 20
Setting up cg style minimization ...
  Unit style: lj
Memory usage per processor = 24.0367 Mbytes
Step Temp E_pair E_mol TotEng Press 
       0            0    7.8441595            0    7.8441595    18.844752 
      36            0    4.2162452            0    4.2162452    16.613297 
Loop time of 3.31645 on 2 procs for 36 steps with 24000 atoms

99.3% CPU use with 2 MPI tasks x no OpenMP threads

Minimization stats:
  Stopping criterion = energy tolerance
  Energy initial, next-to-last, final = 
         7.84415951736      4.21627648972       4.2162452417
  Force two-norm initial, final = 6804.29 4029.97
  Force max component initial, final = 159.709 92.4734
  Final line search alpha, max atom move = 1.50171e-05 0.00138868
  Iterations, force evaluations = 36 122

MPI task timing breakdown:
Section |  min time  |  avg time  |  max time  |%varavg| %total
---------------------------------------------------------------
Pair    | 2.4213     | 2.4699     | 2.5184     |   3.1 | 74.47
Bond    | 0.00016475 | 0.00016642 | 0.00016809 |   0.0 |  0.01
Neigh   | 0.13047    | 0.13054    | 0.13061    |   0.0 |  3.94
Comm    | 0.61603    | 0.66473    | 0.71343    |   6.0 | 20.04
Output  | 0          | 0          | 0          |   0.0 |  0.00
Modify  | 0          | 0          | 0          |   0.0 |  0.00
Other   |            | 0.05114    |            |       |  1.54

Nlocal:    12000 ave 12120 max 11880 min
Histogram: 1 0 0 0 0 0 0 0 0 1
Nghost:    41964 ave 42084 max 41844 min
Histogram: 1 0 0 0 0 0 0 0 0 1
Neighs:    600304 ave 609048 max 591559 min
Histogram: 1 0 0 0 0 0 0 0 0 1

Total # of neighbors = 1200607
Ave neighs/atom = 50.0253
Ave special neighs/atom = 0
Neighbor list builds = 2
Dangerous builds not checked
WARNING: Use special bonds = 0,1,1 with bond style fene (../bond_fene.cpp:188)
Neighbor list info ...
  1 neighbor list requests
  update every 6 steps, delay 0 steps, check no
  max neighbors/atom: 2000, page size: 100000
  master list distance cutoff = 2
  ghost atom cutoff = 5
  binsize = 1, bins = 20 20 20
Setting up Verlet run ...
  Unit style  : lj
  Current step: 36
  Time step   : 0.01
Memory usage per processor = 19.052 Mbytes
Step Temp E_pair E_mol TotEng Press 
      36            0    4.2162452            0    4.2162452    16.711674 
Loop time of 2.26498e-06 on 2 procs for 0 steps with 24000 atoms

0.0% CPU use with 2 MPI tasks x no OpenMP threads

MPI task timing breakdown:
Section |  min time  |  avg time  |  max time  |%varavg| %total
---------------------------------------------------------------
Pair    | 0          | 0          | 0          |   0.0 |  0.00
Bond    | 0          | 0          | 0          |   0.0 |  0.00
Neigh   | 0          | 0          | 0          |   0.0 |  0.00
Comm    | 0          | 0          | 0          |   0.0 |  0.00
Output  | 0          | 0          | 0          |   0.0 |  0.00
Modify  | 0          | 0          | 0          |   0.0 |  0.00
Other   |            | 2.265e-06  |            |       |100.00

Nlocal:    12000 ave 12101 max 11899 min
Histogram: 1 0 0 0 0 0 0 0 0 1
Nghost:    41971 ave 42072 max 41870 min
Histogram: 1 0 0 0 0 0 0 0 0 1
Neighs:    599470 ave 607121 max 591820 min
Histogram: 1 0 0 0 0 0 0 0 0 1

Total # of neighbors = 1198941
Ave neighs/atom = 49.9559
Ave special neighs/atom = 0
Neighbor list builds = 0
Dangerous builds not checked
WARNING: Use special bonds = 0,1,1 with bond style fene (../bond_fene.cpp:188)
Setting up Verlet run ...
  Unit style  : lj
  Current step: 36
  Time step   : 0.005
Memory usage per processor = 19.0672 Mbytes
Step Temp Press Pxy visc vave 
      36   0.44450588    17.950247   0.14274372   -1.4274372            0 
Loop time of 1.90735e-06 on 2 procs for 0 steps with 24000 atoms

0.0% CPU use with 2 MPI tasks x no OpenMP threads

MPI task timing breakdown:
Section |  min time  |  avg time  |  max time  |%varavg| %total
---------------------------------------------------------------
Pair    | 0          | 0          | 0          |   0.0 |  0.00
Bond    | 0          | 0          | 0          |   0.0 |  0.00
Neigh   | 0          | 0          | 0          |   0.0 |  0.00
Comm    | 0          | 0          | 0          |   0.0 |  0.00
Output  | 0          | 0          | 0          |   0.0 |  0.00
Modify  | 0          | 0          | 0          |   0.0 |  0.00
Other   |            | 1.907e-06  |            |       |100.00

Nlocal:    12000 ave 12101 max 11899 min
Histogram: 1 0 0 0 0 0 0 0 0 1
Nghost:    41971 ave 42072 max 41870 min
Histogram: 1 0 0 0 0 0 0 0 0 1
Neighs:    599470 ave 607121 max 591820 min
Histogram: 1 0 0 0 0 0 0 0 0 1

Total # of neighbors = 1198941
Ave neighs/atom = 49.9559
Ave special neighs/atom = 0
Neighbor list builds = 0
Dangerous builds not checked
00herehereherehereherehereherehereherehereherehereherehereherehereherehereherehereherehereherehereherehereherehereherehereherehereherehereherehereherehereherehereherehereherehereherehereherehereherehereherehereherehereherehereherehereherehereherehereherehereherehereherehereherehereherehereherehereherehereherehereherehereherehereherehereherehereherehereherehereherehereherehereherehereherehereherehereTotal wall time: 0:00:03
round equal to: 1round equal to: 1round equal to: 1round equal to: 1round equal to: 1round equal to: 1round equal to: 1round equal to: 1round equal to: 1round equal to: 1numProcs 2 nprocs 2
Using all 2 for LAMMPS simulation
LAMMPS (14 May 2016)
herehereherehereherehereherehereherehereherehereherehereherehereherehereherehereherehereherehereherehereherehereherehereherehereherehereherehereherehereherehereherehereherehereherehereherehereherehereherehereherehereherehereherehereherehereherehereherehereherehereherehereherehereherehereherehereherehereherehereherehereherehereherehereherehereherehereherehereherehereherehereherehereherehereherehereround equal to: 1round equal to: 1round equal to: 1round equal to: 1round equal to: 1round equal to: 1round equal to: 1round equal to: 1round equal to: 1round equal to: 1Created triclinic box = (0 0 0) to (20 20 20) with tilt (0 0 0)
  1 by 1 by 2 MPI processor grid
Read molecule polymer:
  15 atoms with 2 types
  14 bonds with 3 types
  0 angles with 0 types
  0 dihedrals with 0 types
  0 impropers with 0 types
Created 24000 atoms
Created 0 atoms
24000 atoms in group water
0 atoms in group polymer
Setting atom values ...
  24000 settings made for type
WARNING: Resetting reneighboring criteria during minimization (../min.cpp:168)
WARNING: Use special bonds = 0,1,1 with bond style fene (../bond_fene.cpp:188)
Neighbor list info ...
  1 neighbor list requests
  update every 1 steps, delay 0 steps, check yes
  max neighbors/atom: 2000, page size: 100000
  master list distance cutoff = 2
  ghost atom cutoff = 5
  binsize = 1, bins = 20 20 20
Setting up cg style minimization ...
  Unit style: lj
Memory usage per processor = 24.0367 Mbytes
Step Temp E_pair E_mol TotEng Press 
       0            0    7.8441595            0    7.8441595    18.844752 
      36            0    4.2162452            0    4.2162452    16.613297 
Loop time of 3.85797 on 2 procs for 36 steps with 24000 atoms

98.7% CPU use with 2 MPI tasks x no OpenMP threads

Minimization stats:
  Stopping criterion = energy tolerance
  Energy initial, next-to-last, final = 
         7.84415951736      4.21627648972       4.2162452417
  Force two-norm initial, final = 6804.29 4029.97
  Force max component initial, final = 159.709 92.4734
  Final line search alpha, max atom move = 1.50171e-05 0.00138868
  Iterations, force evaluations = 36 122

MPI task timing breakdown:
Section |  min time  |  avg time  |  max time  |%varavg| %total
---------------------------------------------------------------
Pair    | 3.0587     | 3.1119     | 3.1652     |   3.0 | 80.66
Bond    | 0.00013947 | 0.00014806 | 0.00015664 |   0.1 |  0.00
Neigh   | 0.15775    | 0.15777    | 0.15779    |   0.0 |  4.09
Comm    | 0.48119    | 0.5344     | 0.5876     |   7.3 | 13.85
Output  | 0          | 0          | 0          |   0.0 |  0.00
Modify  | 0          | 0          | 0          |   0.0 |  0.00
Other   |            | 0.05373    |            |       |  1.39

Nlocal:    12000 ave 12120 max 11880 min
Histogram: 1 0 0 0 0 0 0 0 0 1
Nghost:    41964 ave 42084 max 41844 min
Histogram: 1 0 0 0 0 0 0 0 0 1
Neighs:    600304 ave 609048 max 591559 min
Histogram: 1 0 0 0 0 0 0 0 0 1

Total # of neighbors = 1200607
Ave neighs/atom = 50.0253
Ave special neighs/atom = 0
Neighbor list builds = 2
Dangerous builds not checked
WARNING: Use special bonds = 0,1,1 with bond style fene (../bond_fene.cpp:188)
Neighbor list info ...
  1 neighbor list requests
  update every 6 steps, delay 0 steps, check no
  max neighbors/atom: 2000, page size: 100000
  master list distance cutoff = 2
  ghost atom cutoff = 5
  binsize = 1, bins = 20 20 20
Setting up Verlet run ...
  Unit style  : lj
  Current step: 36
  Time step   : 0.01
Memory usage per processor = 19.052 Mbytes
Step Temp E_pair E_mol TotEng Press 
      36            0    4.2162452            0    4.2162452    16.711674 
Loop time of 2.02656e-06 on 2 procs for 0 steps with 24000 atoms

0.0% CPU use with 2 MPI tasks x no OpenMP threads

MPI task timing breakdown:
Section |  min time  |  avg time  |  max time  |%varavg| %total
---------------------------------------------------------------
Pair    | 0          | 0          | 0          |   0.0 |  0.00
Bond    | 0          | 0          | 0          |   0.0 |  0.00
Neigh   | 0          | 0          | 0          |   0.0 |  0.00
Comm    | 0          | 0          | 0          |   0.0 |  0.00
Output  | 0          | 0          | 0          |   0.0 |  0.00
Modify  | 0          | 0          | 0          |   0.0 |  0.00
Other   |            | 2.027e-06  |            |       |100.00

Nlocal:    12000 ave 12101 max 11899 min
Histogram: 1 0 0 0 0 0 0 0 0 1
Nghost:    41971 ave 42072 max 41870 min
Histogram: 1 0 0 0 0 0 0 0 0 1
Neighs:    599470 ave 607121 max 591820 min
Histogram: 1 0 0 0 0 0 0 0 0 1

Total # of neighbors = 1198941
Ave neighs/atom = 49.9559
Ave special neighs/atom = 0
Neighbor list builds = 0
Dangerous builds not checked
WARNING: Use special bonds = 0,1,1 with bond style fene (../bond_fene.cpp:188)
Setting up Verlet run ...
  Unit style  : lj
  Current step: 36
  Time step   : 0.005
Memory usage per processor = 19.0672 Mbytes
Step Temp Press Pxy visc vave 
      36   0.44450588    17.950247   0.14274372   -1.4274372            0 
Loop time of 1.90735e-06 on 2 procs for 0 steps with 24000 atoms

0.0% CPU use with 2 MPI tasks x no OpenMP threads

MPI task timing breakdown:
Section |  min time  |  avg time  |  max time  |%varavg| %total
---------------------------------------------------------------
Pair    | 0          | 0          | 0          |   0.0 |  0.00
Bond    | 0          | 0          | 0          |   0.0 |  0.00
Neigh   | 0          | 0          | 0          |   0.0 |  0.00
Comm    | 0          | 0          | 0          |   0.0 |  0.00
Output  | 0          | 0          | 0          |   0.0 |  0.00
Modify  | 0          | 0          | 0          |   0.0 |  0.00
Other   |            | 1.907e-06  |            |       |100.00

Nlocal:    12000 ave 12101 max 11899 min
[...]
  Force two-norm initial, final = 6804.29 4029.97
  Force max component initial, final = 159.709 92.4734
  Final line search alpha, max atom move = 1.50171e-05 0.00138868
  Iterations, force evaluations = 36 122

MPI task timing breakdown:
Section |  min time  |  avg time  |  max time  |%varavg| %total
---------------------------------------------------------------
Pair    | 2.331      | 2.5159     | 2.7008     |  11.7 | 74.32
Bond    | 0.00015855 | 0.00016105 | 0.00016356 |   0.0 |  0.00
Neigh   | 0.14574    | 0.14578    | 0.14583    |   0.0 |  4.31
Comm    | 0.48916    | 0.67309    | 0.85703    |  22.4 | 19.88
Output  | 0          | 0          | 0          |   0.0 |  0.00
Modify  | 0          | 0          | 0          |   0.0 |  0.00
Other   |            | 0.05035    |            |       |  1.49

Nlocal:    12000 ave 12120 max 11880 min
Histogram: 1 0 0 0 0 0 0 0 0 1
Nghost:    41964 ave 42084 max 41844 min
Histogram: 1 0 0 0 0 0 0 0 0 1
Neighs:    600304 ave 609048 max 591559 min
Histogram: 1 0 0 0 0 0 0 0 0 1

Total # of neighbors = 1200607
Ave neighs/atom = 50.0253
Ave special neighs/atom = 0
Neighbor list builds = 2
Dangerous builds not checked
WARNING: Use special bonds = 0,1,1 with bond style fene (../bond_fene.cpp:188)
Neighbor list info ...
  1 neighbor list requests
  update every 6 steps, delay 0 steps, check no
  max neighbors/atom: 2000, page size: 100000
  master list distance cutoff = 2
  ghost atom cutoff = 5
  binsize = 1, bins = 20 20 20
Setting up Verlet run ...
  Unit style  : lj
  Current step: 36
  Time step   : 0.01
Memory usage per processor = 19.052 Mbytes
Step Temp E_pair E_mol TotEng Press 
      36            0    4.2162452            0    4.2162452    16.711674 
Loop time of 1.90735e-06 on 2 procs for 0 steps with 24000 atoms

0.0% CPU use with 2 MPI tasks x no OpenMP threads

MPI task timing breakdown:
Section |  min time  |  avg time  |  max time  |%varavg| %total
---------------------------------------------------------------
Pair    | 0          | 0          | 0          |   0.0 |  0.00
Bond    | 0          | 0          | 0          |   0.0 |  0.00
Neigh   | 0          | 0          | 0          |   0.0 |  0.00
Comm    | 0          | 0          | 0          |   0.0 |  0.00
Output  | 0          | 0          | 0          |   0.0 |  0.00
Modify  | 0          | 0          | 0          |   0.0 |  0.00
Other   |            | 1.907e-06  |            |       |100.00

Nlocal:    12000 ave 12101 max 11899 min
Histogram: 1 0 0 0 0 0 0 0 0 1
Nghost:    41971 ave 42072 max 41870 min
Histogram: 1 0 0 0 0 0 0 0 0 1
Neighs:    599470 ave 607121 max 591820 min
Histogram: 1 0 0 0 0 0 0 0 0 1

Total # of neighbors = 1198941
Ave neighs/atom = 49.9559
Ave special neighs/atom = 0
Neighbor list builds = 0
Dangerous builds not checked
WARNING: Use special bonds = 0,1,1 with bond style fene (../bond_fene.cpp:188)
Setting up Verlet run ...
  Unit style  : lj
  Current step: 36
  Time step   : 0.005
Memory usage per processor = 19.0672 Mbytes
Step Temp Press Pxy visc vave 
      36   0.44450588    17.950247   0.14274372   -1.4274372            0 
Loop time of 2.14577e-06 on 2 procs for 0 steps with 24000 atoms

0.0% CPU use with 2 MPI tasks x no OpenMP threads

MPI task timing breakdown:
Section |  min time  |  avg time  |  max time  |%varavg| %total
---------------------------------------------------------------
Pair    | 0          | 0          | 0          |   0.0 |  0.00
Bond    | 0          | 0          | 0          |   0.0 |  0.00
Neigh   | 0          | 0          | 0          |   0.0 |  0.00
Comm    | 0          | 0          | 0          |   0.0 |  0.00
Output  | 0          | 0          | 0          |   0.0 |  0.00
Modify  | 0          | 0          | 0          |   0.0 |  0.00
Other   |            | 2.146e-06  |            |       |100.00

Nlocal:    12000 ave 12101 max 11899 min
Histogram: 1 0 0 0 0 0 0 0 0 1
Nghost:    41971 ave 42072 max 41870 min
Histogram: 1 0 0 0 0 0 0 0 0 1
Neighs:    599470 ave 607121 max 591820 min
Histogram: 1 0 0 0 0 0 0 0 0 1

Total # of neighbors = 1198941
Ave neighs/atom = 49.9559
Ave special neighs/atom = 0
Neighbor list builds = 0
Dangerous builds not checked
here00hereherehereherehereherehereherehereherehereherehereherehereherehereherehereherehereherehereherehereherehereherehereherehereherehereherehereherehereherehereherehereherehereherehereherehereherehereherehereherehereherehereherehereherehereherehereherehereherehereherehereherehereherehereherehereherehereherehereherehereherehereherehereherehereherehereherehereherehereherehereherehereherehereherehereherehereherehereherehereherehereherehereherehereherehereherehereherehereherehereherehereherehereherehereherehereherehereherehereherehereherehereherehereherehereherehereherehereherehereherehereherehereherehereherehereherehereherehereherehereherehereherehereherehereherehereherehereherehereherehereherehereherehereherehereherehereherehereherehereherehereherehereherehereTotal wall time: 0:00:03
hereround equal to: 1round equal to: 1round equal to: 1round equal to: 1round equal to: 1round equal to: 1round equal to: 1round equal to: 1round equal to: 1round equal to: 1numProcs 2 nprocs 2
Using all 2 for LAMMPS simulation
hereherehereherehereherehereround equal to: 1round equal to: 1round equal to: 1round equal to: 1round equal to: 1round equal to: 1round equal to: 1round equal to: 1round equal to: 1round equal to: 1LAMMPS (14 May 2016)
Created triclinic box = (0 0 0) to (20 20 20) with tilt (0 0 0)
  1 by 1 by 2 MPI processor grid
Read molecule polymer:
  15 atoms with 2 types
  14 bonds with 3 types
  0 angles with 0 types
  0 dihedrals with 0 types
  0 impropers with 0 types
Created 24000 atoms
Created 0 atoms
24000 atoms in group water
0 atoms in group polymer
Setting atom values ...
  24000 settings made for type
WARNING: Resetting reneighboring criteria during minimization (../min.cpp:168)
WARNING: Use special bonds = 0,1,1 with bond style fene (../bond_fene.cpp:188)
Neighbor list info ...
  1 neighbor list requests
  update every 1 steps, delay 0 steps, check yes
  max neighbors/atom: 2000, page size: 100000
  master list distance cutoff = 2
  ghost atom cutoff = 5
  binsize = 1, bins = 20 20 20
Setting up cg style minimization ...
  Unit style: lj
Memory usage per processor = 24.0367 Mbytes
Step Temp E_pair E_mol TotEng Press 
       0            0    7.8441595            0    7.8441595    18.844752 
      36            0    4.2162452            0    4.2162452    16.613297 
Loop time of 3.2571 on 2 procs for 36 steps with 24000 atoms

99.7% CPU use with 2 MPI tasks x no OpenMP threads

Minimization stats:
  Stopping criterion = energy tolerance
  Energy initial, next-to-last, final = 
         7.84415951736      4.21627648972       4.2162452417
  Force two-norm initial, final = 6804.29 4029.97
  Force max component initial, final = 159.709 92.4734
  Final line search alpha, max atom move = 1.50171e-05 0.00138868
  Iterations, force evaluations = 36 122

MPI task timing breakdown:
Section |  min time  |  avg time  |  max time  |%varavg| %total
---------------------------------------------------------------
Pair    | 2.3538     | 2.4043     | 2.4548     |   3.3 | 73.82
Bond    | 0.0001564  | 0.00015795 | 0.0001595  |   0.0 |  0.00
Neigh   | 0.13971    | 0.13974    | 0.13977    |   0.0 |  4.29
Comm    | 0.61344    | 0.66385    | 0.71426    |   6.2 | 20.38
Output  | 0          | 0          | 0          |   0.0 |  0.00
Modify  | 0          | 0          | 0          |   0.0 |  0.00
Other   |            | 0.04906    |            |       |  1.51

Nlocal:    12000 ave 12120 max 11880 min
Histogram: 1 0 0 0 0 0 0 0 0 1
Nghost:    41964 ave 42084 max 41844 min
Histogram: 1 0 0 0 0 0 0 0 0 1
Neighs:    600304 ave 609048 max 591559 min
Histogram: 1 0 0 0 0 0 0 0 0 1

Total # of neighbors = 1200607
Ave neighs/atom = 50.0253
Ave special neighs/atom = 0
Neighbor list builds = 2
Dangerous builds not checked
WARNING: Use special bonds = 0,1,1 with bond style fene (../bond_fene.cpp:188)
Neighbor list info ...
  1 neighbor list requests
  update every 6 steps, delay 0 steps, check no
  max neighbors/atom: 2000, page size: 100000
  master list distance cutoff = 2
  ghost atom cutoff = 5
  binsize = 1, bins = 20 20 20
Setting up Verlet run ...
  Unit style  : lj
  Current step: 36
  Time step   : 0.01
Memory usage per processor = 19.052 Mbytes
Step Temp E_pair E_mol TotEng Press 
      36            0    4.2162452            0    4.2162452    16.711674 
Loop time of 2.02656e-06 on 2 procs for 0 steps with 24000 atoms

0.0% CPU use with 2 MPI tasks x no OpenMP threads

MPI task timing breakdown:
Section |  min time  |  avg time  |  max time  |%varavg| %total
---------------------------------------------------------------
Pair    | 0          | 0          | 0          |   0.0 |  0.00
Bond    | 0          | 0          | 0          |   0.0 |  0.00
Neigh   | 0          | 0          | 0          |   0.0 |  0.00
Comm    | 0          | 0          | 0          |   0.0 |  0.00
Output  | 0          | 0          | 0          |   0.0 |  0.00
Modify  | 0          | 0          | 0          |   0.0 |  0.00
Other   |            | 2.027e-06  |            |       |100.00

Nlocal:    12000 ave 12101 max 11899 min
Histogram: 1 0 0 0 0 0 0 0 0 1
Nghost:    41971 ave 42072 max 41870 min
Histogram: 1 0 0 0 0 0 0 0 0 1
Neighs:    599470 ave 607121 max 591820 min
Histogram: 1 0 0 0 0 0 0 0 0 1

Total # of neighbors = 1198941
Ave neighs/atom = 49.9559
Ave special neighs/atom = 0
Neighbor list builds = 0
Dangerous builds not checked
WARNING: Use special bonds = 0,1,1 with bond style fene (../bond_fene.cpp:188)
Setting up Verlet run ...
  Unit style  : lj
  Current step: 36
  Time step   : 0.005
Memory usage per processor = 19.0672 Mbytes
Step Temp Press Pxy visc vave 
      36   0.44450588    17.950247   0.14274372   -1.4274372            0 
Loop time of 2.02656e-06 on 2 procs for 0 steps with 24000 atoms

0.0% CPU use with 2 MPI tasks x no OpenMP threads

MPI task timing breakdown:
Section |  min time  |  avg time  |  max time  |%varavg| %total
---------------------------------------------------------------
Pair    | 0          | 0          | 0          |   0.0 |  0.00
Bond    | 0          | 0          | 0          |   0.0 |  0.00
Neigh   | 0          | 0          | 0          |   0.0 |  0.00
Comm    | 0          | 0          | 0          |   0.0 |  0.00
Output  | 0          | 0          | 0          |   0.0 |  0.00
Modify  | 0          | 0          | 0          |   0.0 |  0.00
Other   |            | 2.027e-06  |            |       |100.00

Nlocal:    12000 ave 12101 max 11899 min
Histogram: 1 0 0 0 0 0 0 0 0 1
Nghost:    41971 ave 42072 max 41870 min
Histogram: 1 0 0 0 0 0 0 0 0 1
Neighs:    599470 ave 607121 max 591820 min
Histogram: 1 0 0 0 0 0 0 0 0 1

Total # of neighbors = 1198941
Ave neighs/atom = 49.9559
Ave special neighs/atom = 0
Neighbor list builds = 0
Dangerous builds not checked
00herehereherehereherehereherehereherehereherehereherehereherehereherehereherehereherehereherehereherehereherehereherehereherehereherehereherehereherehereherehereherehereherehereherehereherehereherehereherehereherehereherehereherehereherehereherehereherehereherehereherehereherehereherehereherehereherehereherehereherehereherehereherehereherehereherehereherehereherehereherehereherehereherehereherehereherehereherehereherehereherehereherehereherehereherehereherehereherehereherehereherehereherehereherehereherehereherehereherehereherehereherehereherehereherehereherehereherehereherehereherehereherehereherehereherehereherehereherehereherehereherehereherehereherehereherehereherehereherehereherehereherehereherehereherehereherehereherehereherehereherehereherehereherehereherehereherehereherehereherehereTotal wall time: 0:00:03
round equal to: 1round equal to: 1round equal to: 1round equal to: 1round equal to: 1round equal to: 1round equal to: 1round equal to: 1round equal to: 1round equal to: 1round equal to: 1round equal to: round equal to: 1round equal to: 1round equal to: 1round equal to: 1round equal to: 1round equal to: 1round equal to: 11round equal to: 1numProcs 2 nprocs 2
Using all 2 for LAMMPS simulation
LAMMPS (14 May 2016)
Created triclinic box = (0 0 0) to (20 20 20) with tilt (0 0 0)
  1 by 1 by 2 MPI processor grid
Read molecule polymer:
  15 atoms with 2 types
  14 bonds with 3 types
  0 angles with 0 types
  0 dihedrals with 0 types
  0 impropers with 0 types
Created 24000 atoms
Created 0 atoms
24000 atoms in group water
0 atoms in group polymer
Setting atom values ...
  24000 settings made for type
WARNING: Resetting reneighboring criteria during minimization (../min.cpp:168)
WARNING: Use special bonds = 0,1,1 with bond style fene (../bond_fene.cpp:188)
Neighbor list info ...
  1 neighbor list requests
  update every 1 steps, delay 0 steps, check yes
  max neighbors/atom: 2000, page size: 100000
  master list distance cutoff = 2
  ghost atom cutoff = 5
  binsize = 1, bins = 20 20 20
Setting up cg style minimization ...
  Unit style: lj
Memory usage per processor = 24.0367 Mbytes
Step Temp E_pair E_mol TotEng Press 
       0            0    7.8441595            0    7.8441595    18.844752 
      36            0    4.2162452            0    4.2162452    16.613297 
Loop time of 4.05466 on 2 procs for 36 steps with 24000 atoms

98.8% CPU use with 2 MPI tasks x no OpenMP threads

Minimization stats:
  Stopping criterion = energy tolerance
  Energy initial, next-to-last, final = 
         7.84415951736      4.21627648972       4.2162452417
  Force two-norm initial, final = 6804.29 4029.97
  Force max component initial, final = 159.709 92.4734
  Final line search alpha, max atom move = 1.50171e-05 0.00138868
  Iterations, force evaluations = 36 122

MPI task timing breakdown:
Section |  min time  |  avg time  |  max time  |%varavg| %total
---------------------------------------------------------------
Pair    | 3.2324     | 3.2958     | 3.3592     |   3.5 | 81.28
Bond    | 0.00014281 | 0.00015116 | 0.0001595  |   0.1 |  0.00
Neigh   | 0.15962    | 0.1597     | 0.15979    |   0.0 |  3.94
Comm    | 0.47828    | 0.54128    | 0.60428    |   8.6 | 13.35
Output  | 0          | 0          | 0          |   0.0 |  0.00
Modify  | 0          | 0          | 0          |   0.0 |  0.00
Other   |            | 0.0577     |            |       |  1.42

Nlocal:    12000 ave 12120 max 11880 min
Histogram: 1 0 0 0 0 0 0 0 0 1
Nghost:    41964 ave 42084 max 41844 min
Histogram: 1 0 0 0 0 0 0 0 0 1
Neighs:    600304 ave 609048 max 591559 min
Histogram: 1 0 0 0 0 0 0 0 0 1

Total # of neighbors = 1200607
Ave neighs/atom = 50.0253
Ave special neighs/atom = 0
Neighbor list builds = 2
Dangerous builds not checked
WARNING: Use special bonds = 0,1,1 with bond style fene (../bond_fene.cpp:188)
Neighbor list info ...
  1 neighbor list requests
  update every 6 steps, delay 0 steps, check no
  max neighbors/atom: 2000, page size: 100000
  master list distance cutoff = 2
  ghost atom cutoff = 5
  binsize = 1, bins = 20 20 20
Setting up Verlet run ...
  Unit style  : lj
  Current step: 36
  Time step   : 0.01
Memory usage per processor = 19.052 Mbytes
Step Temp E_pair E_mol TotEng Press 
      36            0    4.2162452            0    4.2162452    16.711674 
Loop time of 3.69549e-06 on 2 procs for 0 steps with 24000 atoms

0.0% CPU use with 2 MPI tasks x no OpenMP threads

MPI task timing breakdown:
Section |  min time  |  avg time  |  max time  |%varavg| %total
---------------------------------------------------------------
Pair    | 0          | 0          | 0          |   0.0 |  0.00
Bond    | 0          | 0          | 0          |   0.0 |  0.00
Neigh   | 0          | 0          | 0          |   0.0 |  0.00
Comm    | 0          | 0          | 0          |   0.0 |  0.00
Output  | 0          | 0          | 0          |   0.0 |  0.00
Modify  | 0          | 0          | 0          |   0.0 |  0.00
Other   |            | 3.695e-06  |            |       |100.00

Nlocal:    12000 ave 12101 max 11899 min
Histogram: 1 0 0 0 0 0 0 0 0 1
Nghost:    41971 ave 42072 max 41870 min
Histogram: 1 0 0 0 0 0 0 0 0 1
Neighs:    599470 ave 607121 max 591820 min
Histogram: 1 0 0 0 0 0 0 0 0 1

Total # of neighbors = 1198941
Ave neighs/atom = 49.9559
Ave special neighs/atom = 0
Neighbor list builds = 0
Dangerous builds not checked
WARNING: Use special bonds = 0,1,1 with bond style fene (../bond_fene.cpp:188)
Setting up Verlet run ...
  Unit style  : lj
  Current step: 36
  Time step   : 0.005
Memory usage per processor = 19.0672 Mbytes
Step Temp Press Pxy visc vave 
      36   0.44450588    17.950247   0.14274372   -1.4274372            0 
Loop time of 1.78814e-06 on 2 procs for 0 steps with 24000 atoms

0.0% CPU use with 2 MPI tasks x no OpenMP threads

MPI task timing breakdown:
Section |  min time  |  avg time  |  max time  |%varavg| %total
---------------------------------------------------------------
Pair    | 0          | 0          | 0          |   0.0 |  0.00
Bond    | 0          | 0          | 0          |   0.0 |  0.00
Neigh   | 0          | 0          | 0          |   0.0 |  0.00
Comm    | 0          | 0          | 0          |   0.0 |  0.00
Output  | 0          | 0          | 0          |   0.0 |  0.00
Modify  | 0          | 0          | 0          |   0.0 |  0.00
Other   |            | 1.788e-06  |            |       |100.00

Nlocal:    12000 ave 12101 max 11899 min
Histogram: 1 0 0 0 0 0 0 0 0 1
Nghost:    41971 ave 42072 max 41870 min
Histogram: 1 0 0 0 0 0 0 0 0 1
Neighs:    599470 ave 607121 max 591820 min
Histogram: 1 0 0 0 0 0 0 0 0 1

Total # of neighbors = 1198941
Ave neighs/atom = 49.9559
Ave special neighs/atom = 0
Neighbor list builds = 0
Dangerous builds not checked
herehereherehereherehereherehereherehereherehereherehereherehereherehereherehereherehereherehereherehereherehereherehereherehereherehereherehereherehereherehereherehereherehereherehereherehereherehereherehereherehereherehereherehereherehereherehereherehereherehereherehereherehereherehereherehereherehereherehereherehereherehereherehereherehereherehereherehereherehereherehereherehereherehereherehere00herehereherehereherehereherehereherehereherehereherehereherehereherehereherehereherehereherehereherehereherehereherehereherehereherehereherehereherehereherehereherehereherehereherehereherehereherehereherehereherehereherehereherehereherehereherehereherehereherehereherehereherehereherehereherehereherehereherehereround equal to: 1round equal to: 1round equal to: 1round equal to: 1round equal to: 1round equal to: 1round equal to: 1round equal to: 1round equal to: 1round equal to: 1herehereherehereherehereherehereherehereherehereherehereherehereherehereherehereherehereTotal wall time: 0:00:04
round equal to: 1round equal to: 1round equal to: 1round equal to: 1round equal to: 1round equal to: 1round equal to: 1round equal to: 1round equal to: 1round equal to: 1numProcs 2 nprocs 2
Using all 2 for LAMMPS simulation
LAMMPS (14 May 2016)
Created triclinic box = (0 0 0) to (20 20 20) with tilt (0 0 0)
  1 by 1 by 2 MPI processor grid
Read molecule polymer:
  15 atoms with 2 types
  14 bonds with 3 types
  0 angles with 0 types
  0 dihedrals with 0 types
  0 impropers with 0 types
Created 24000 atoms
Created 0 atoms
24000 atoms in group water
0 atoms in group polymer
Setting atom values ...
  24000 settings made for type
WARNING: Resetting reneighboring criteria during minimization (../min.cpp:168)
WARNING: Use special bonds = 0,1,1 with bond style fene (../bond_fene.cpp:188)
Neighbor list info ...
  1 neighbor list requests
  update every 1 steps, delay 0 steps, check yes
  max neighbors/atom: 2000, page size: 100000
  master list distance cutoff = 2
  ghost atom cutoff = 5
  binsize = 1, bins = 20 20 20
Setting up cg style minimization ...
  Unit style: lj
Memory usage per processor = 24.0367 Mbytes
Step Temp E_pair E_mol TotEng Press 
       0            0    7.8441595            0    7.8441595    18.844752 
