/*---------------------------------------------------------------------------*\
| =========                 |                                                 |
| \\      /  F ield         | OpenFOAM: The Open Source CFD Toolbox           |
|  \\    /   O peration     | Version:  5.0                                   |
|   \\  /    A nd           | Web:      www.OpenFOAM.org                      |
|    \\/     M anipulation  |                                                 |
\*---------------------------------------------------------------------------*/
Build  : 5.0-dbb428a3a855
Exec   : AnonNewtonianIcoFoam -parallel
Date   : Oct 26 2017
Time   : 11:24:02
Host   : "hermes-N552VW"
PID    : 15418
I/O    : uncollated
Case   : /home/hermes/Desktop/gitDPD/DPDCFD/test
nProcs : 2
Slaves : 1("hermes-N552VW.15419")
Pstream initialized with:
    floatTransfer      : 0
    nProcsSimpleSum    : 0
    commsType          : nonBlocking
    polling iterations : 0
sigFpe : Enabling floating point exception trapping (FOAM_SIGFPE).
fileModificationChecking : Monitoring run-time modified files using timeStampMaster (fileModificationSkew 10)
allowSystemOperations : Allowing user-supplied system call operations

// * * * * * * * * * * * * * * * * * * * * * * * * * * * * * * * * * * * * * //
Create time

Create mesh, no clear-out for time = 0


PISO: Operating solver in PISO mode

Reading field p

Reading field U

Hey! I am faking the viscosity 

Reading/calculating face flux field phi

Selecting incompressible transport model CrossPowerLaw

Starting time loop

Time = 0.01

Courant Number mean: 0 max: 0
Bad Mood
Bad Mood
smoothSolver:  Solving for Ux, Initial residual = 1, Final residual = 7.96258e-06, No Iterations 29
smoothSolver:  Solving for Uy, Initial residual = 0, Final residual = 0, No Iterations 0
GAMG:  Solving for p, Initial residual = 1, Final residual = 0.0570123, No Iterations 4
time step continuity errors : sum local = 9.84182e-11, global = 1.44688e-11, cumulative = 1.44688e-11
GAMG:  Solving for p, Initial residual = 0.565307, Final residual = 0.038872, No Iterations 4
time step continuity errors : sum local = 9.21725e-11, global = 2.07425e-12, cumulative = 1.65431e-11
GAMG:  Solving for p, Initial residual = 0.343066, Final residual = 0.0324371, No Iterations 4
time step continuity errors : sum local = 3.18647e-11, global = -7.23716e-12, cumulative = 9.30591e-12
GAMG:  Solving for p, Initial residual = 0.286955, Final residual = 0.0233549, No Iterations 3
time step continuity errors : sum local = 1.22449e-11, global = 1.81999e-13, cumulative = 9.4879e-12
GAMG:  Solving for p, Initial residual = 0.245232, Final residual = 7.79872e-07, No Iterations 16
time step continuity errors : sum local = 2.613e-16, global = -1.81444e-17, cumulative = 9.48789e-12
ExecutionTime = 0.01 s  ClockTime = 0 s

Time = 0.02

Courant Number mean: 0.00286654 max: 0.00843249
Bad Mood
Bad Mood
smoothSolver:  Solving for Ux, Initial residual = 0.0644861, Final residual = 7.22454e-06, No Iterations 25
smoothSolver:  Solving for Uy, Initial residual = 0.819595, Final residual = 7.35876e-06, No Iterations 28
GAMG:  Solving for p, Initial residual = 0.938013, Final residual = 0.0906855, No Iterations 4
time step continuity errors : sum local = 2.71387e-10, global = 7.79792e-11, cumulative = 8.74671e-11
GAMG:  Solving for p, Initial residual = 0.576974, Final residual = 0.031005, No Iterations 4
time step continuity errors : sum local = 1.18487e-10, global = -1.96537e-11, cumulative = 6.78134e-11
GAMG:  Solving for p, Initial residual = 0.331727, Final residual = 0.0290604, No Iterations 4
time step continuity errors : sum local = 4.69946e-11, global = -1.57743e-11, cumulative = 5.2039e-11
GAMG:  Solving for p, Initial residual = 0.287133, Final residual = 0.017642, No Iterations 3
time step continuity errors : sum local = 1.51011e-11, global = 4.32138e-13, cumulative = 5.24712e-11
GAMG:  Solving for p, Initial residual = 0.202883, Final residual = 9.88692e-07, No Iterations 16
time step continuity errors : sum local = 5.39037e-16, global = -6.26006e-17, cumulative = 5.24711e-11
ExecutionTime = 0.01 s  ClockTime = 0 s

Time = 0.03

Courant Number mean: 0.00395004 max: 0.0091791
Bad Mood
Bad Mood
smoothSolver:  Solving for Ux, Initial residual = 0.024111, Final residual = 7.20958e-06, No Iterations 23
smoothSolver:  Solving for Uy, Initial residual = 0.800947, Final residual = 7.5202e-06, No Iterations 28
GAMG:  Solving for p, Initial residual = 0.885775, Final residual = 0.0872375, No Iterations 4
time step continuity errors : sum local = 2.36565e-10, global = 6.1962e-11, cumulative = 1.14433e-10
GAMG:  Solving for p, Initial residual = 0.594303, Final residual = 0.0317758, No Iterations 4
time step continuity errors : sum local = 1.04432e-10, global = -1.78631e-11, cumulative = 9.657e-11
GAMG:  Solving for p, Initial residual = 0.345837, Final residual = 0.0308341, No Iterations 4
time step continuity errors : sum local = 4.23244e-11, global = -1.53324e-11, cumulative = 8.12376e-11
GAMG:  Solving for p, Initial residual = 0.285806, Final residual = 0.0185095, No Iterations 3
time step continuity errors : sum local = 1.33311e-11, global = 2.32418e-13, cumulative = 8.14701e-11
GAMG:  Solving for p, Initial residual = 0.19239, Final residual = 3.85853e-07, No Iterations 17
time step continuity errors : sum local = 1.8125e-16, global = 8.64071e-18, cumulative = 8.14701e-11
ExecutionTime = 0.02 s  ClockTime = 0 s

Time = 0.04

Courant Number mean: 0.00447186 max: 0.00936018
Bad Mood
Bad Mood
smoothSolver:  Solving for Ux, Initial residual = 0.0115977, Final residual = 7.28964e-06, No Iterations 21
smoothSolver:  Solving for Uy, Initial residual = 0.786563, Final residual = 8.01195e-06, No Iterations 28
GAMG:  Solving for p, Initial residual = 0.891589, Final residual = 0.0859896, No Iterations 4
time step continuity errors : sum local = 2.17961e-10, global = 5.9453e-11, cumulative = 1.40923e-10
GAMG:  Solving for p, Initial residual = 0.587619, Final residual = 0.0312173, No Iterations 4
time step continuity errors : sum local = 9.7132e-11, global = -1.59716e-11, cumulative = 1.24952e-10
GAMG:  Solving for p, Initial residual = 0.334302, Final residual = 0.0287646, No Iterations 4
time step continuity errors : sum local = 3.82314e-11, global = -1.26231e-11, cumulative = 1.12328e-10
GAMG:  Solving for p, Initial residual = 0.279415, Final residual = 0.0177316, No Iterations 3
time step continuity errors : sum local = 1.26846e-11, global = -1.77485e-13, cumulative = 1.12151e-10
GAMG:  Solving for p, Initial residual = 0.19156, Final residual = 9.92982e-07, No Iterations 16
time step continuity errors : sum local = 4.59631e-16, global = -5.04584e-17, cumulative = 1.12151e-10
ExecutionTime = 0.03 s  ClockTime = 0 s

Time = 0.05

Courant Number mean: 0.00473326 max: 0.00943272
Bad Mood
Bad Mood
smoothSolver:  Solving for Ux, Initial residual = 0.00581514, Final residual = 7.39985e-06, No Iterations 19
smoothSolver:  Solving for Uy, Initial residual = 0.776588, Final residual = 8.35282e-06, No Iterations 28
GAMG:  Solving for p, Initial residual = 0.885656, Final residual = 0.0845331, No Iterations 4
time step continuity errors : sum local = 1.99163e-10, global = 5.27802e-11, cumulative = 1.64931e-10
GAMG:  Solving for p, Initial residual = 0.58989, Final residual = 0.0313147, No Iterations 4
time step continuity errors : sum local = 8.97679e-11, global = -1.47838e-11, cumulative = 1.50147e-10
GAMG:  Solving for p, Initial residual = 0.329381, Final residual = 0.0285528, No Iterations 4
time step continuity errors : sum local = 3.5653e-11, global = -1.17102e-11, cumulative = 1.38437e-10
GAMG:  Solving for p, Initial residual = 0.276749, Final residual = 0.0184076, No Iterations 3
time step continuity errors : sum local = 1.24057e-11, global = 4.57591e-13, cumulative = 1.38895e-10
GAMG:  Solving for p, Initial residual = 0.191614, Final residual = 9.73947e-07, No Iterations 16
time step continuity errors : sum local = 4.27736e-16, global = -4.82301e-17, cumulative = 1.38895e-10
ExecutionTime = 0.03 s  ClockTime = 0 s

Time = 0.06

Courant Number mean: 0.00486513 max: 0.00946659
Bad Mood
Bad Mood
smoothSolver:  Solving for Ux, Initial residual = 0.00293542, Final residual = 7.51618e-06, No Iterations 17
smoothSolver:  Solving for Uy, Initial residual = 0.761735, Final residual = 8.77699e-06, No Iterations 28
GAMG:  Solving for p, Initial residual = 0.881978, Final residual = 0.0839742, No Iterations 4
time step continuity errors : sum local = 1.81755e-10, global = 4.79562e-11, cumulative = 1.86851e-10
GAMG:  Solving for p, Initial residual = 0.58435, Final residual = 0.0309965, No Iterations 4
time step continuity errors : sum local = 8.20661e-11, global = -1.28864e-11, cumulative = 1.73964e-10
GAMG:  Solving for p, Initial residual = 0.324767, Final residual = 0.0277687, No Iterations 4
time step continuity errors : sum local = 3.22641e-11, global = -1.05554e-11, cumulative = 1.63409e-10
GAMG:  Solving for p, Initial residual = 0.272344, Final residual = 0.0177086, No Iterations 3
time step continuity errors : sum local = 1.13017e-11, global = 4.41762e-13, cumulative = 1.63851e-10
GAMG:  Solving for p, Initial residual = 0.190779, Final residual = 9.0878e-07, No Iterations 16
time step continuity errors : sum local = 3.78135e-16, global = -4.21761e-17, cumulative = 1.63851e-10
ExecutionTime = 0.04 s  ClockTime = 0 s

Time = 0.07

Courant Number mean: 0.00493174 max: 0.00948321
Bad Mood
Bad Mood
smoothSolver:  Solving for Ux, Initial residual = 0.00148512, Final residual = 7.6439e-06, No Iterations 15
smoothSolver:  Solving for Uy, Initial residual = 0.746663, Final residual = 9.23357e-06, No Iterations 28
GAMG:  Solving for p, Initial residual = 0.877261, Final residual = 0.0828766, No Iterations 4
time step continuity errors : sum local = 1.62792e-10, global = 4.25477e-11, cumulative = 2.06398e-10
GAMG:  Solving for p, Initial residual = 0.581816, Final residual = 0.0309047, No Iterations 4
time step continuity errors : sum local = 7.41985e-11, global = -1.12798e-11, cumulative = 1.95119e-10
GAMG:  Solving for p, Initial residual = 0.319326, Final residual = 0.0272301, No Iterations 4
time step continuity errors : sum local = 2.91105e-11, global = -9.4792e-12, cumulative = 1.85639e-10
GAMG:  Solving for p, Initial residual = 0.267939, Final residual = 0.0171941, No Iterations 3
time step continuity errors : sum local = 1.02303e-11, global = 4.32769e-13, cumulative = 1.86072e-10
GAMG:  Solving for p, Initial residual = 0.189002, Final residual = 8.61085e-07, No Iterations 16
time step continuity errors : sum local = 3.35258e-16, global = -3.64141e-17, cumulative = 1.86072e-10
ExecutionTime = 0.05 s  ClockTime = 0 s

Time = 0.08

Courant Number mean: 0.00496539 max: 0.00949151
Bad Mood
Bad Mood
smoothSolver:  Solving for Ux, Initial residual = 0.000752858, Final residual = 7.78803e-06, No Iterations 13
smoothSolver:  Solving for Uy, Initial residual = 0.728129, Final residual = 9.76838e-06, No Iterations 28
GAMG:  Solving for p, Initial residual = 0.872273, Final residual = 0.0816903, No Iterations 4
time step continuity errors : sum local = 1.43301e-10, global = 3.70175e-11, cumulative = 2.2309e-10
GAMG:  Solving for p, Initial residual = 0.578935, Final residual = 0.0309815, No Iterations 4
time step continuity errors : sum local = 6.63783e-11, global = -9.66961e-12, cumulative = 2.1342e-10
GAMG:  Solving for p, Initial residual = 0.313572, Final residual = 0.0267143, No Iterations 4
time step continuity errors : sum local = 2.58888e-11, global = -8.3686e-12, cumulative = 2.05051e-10
GAMG:  Solving for p, Initial residual = 0.263083, Final residual = 0.0167191, No Iterations 3
time step continuity errors : sum local = 9.15473e-12, global = 4.17979e-13, cumulative = 2.05469e-10
GAMG:  Solving for p, Initial residual = 0.186719, Final residual = 8.17951e-07, No Iterations 16
time step continuity errors : sum local = 2.94478e-16, global = -3.09725e-17, cumulative = 2.05469e-10
ExecutionTime = 0.05 s  ClockTime = 0 s

Time = 0.09

Courant Number mean: 0.0049824 max: 0.00949569
Bad Mood
Bad Mood
smoothSolver:  Solving for Ux, Initial residual = 0.000382924, Final residual = 7.96098e-06, No Iterations 11
smoothSolver:  Solving for Uy, Initial residual = 0.705432, Final residual = 7.25435e-06, No Iterations 29
GAMG:  Solving for p, Initial residual = 0.866051, Final residual = 0.0803665, No Iterations 4
time step continuity errors : sum local = 1.23385e-10, global = 3.13683e-11, cumulative = 2.36838e-10
GAMG:  Solving for p, Initial residual = 0.575775, Final residual = 0.0312182, No Iterations 4
time step continuity errors : sum local = 5.84503e-11, global = -8.07739e-12, cumulative = 2.2876e-10
GAMG:  Solving for p, Initial residual = 0.307531, Final residual = 0.0262194, No Iterations 4
time step continuity errors : sum local = 2.25765e-11, global = -7.22113e-12, cumulative = 2.21539e-10
GAMG:  Solving for p, Initial residual = 0.257353, Final residual = 0.0163368, No Iterations 3
time step continuity errors : sum local = 8.09133e-12, global = 3.96869e-13, cumulative = 2.21936e-10
GAMG:  Solving for p, Initial residual = 0.183761, Final residual = 7.79002e-07, No Iterations 16
time step continuity errors : sum local = 2.5538e-16, global = -2.5825e-17, cumulative = 2.21936e-10
ExecutionTime = 0.06 s  ClockTime = 0 s

Time = 0.1

Courant Number mean: 0.00499099 max: 0.00949779
Bad Mood
Bad Mood
smoothSolver:  Solving for Ux, Initial residual = 0.000196044, Final residual = 8.19031e-06, No Iterations 9
smoothSolver:  Solving for Uy, Initial residual = 0.67745, Final residual = 7.74368e-06, No Iterations 29
GAMG:  Solving for p, Initial residual = 0.858695, Final residual = 0.0788278, No Iterations 4
time step continuity errors : sum local = 1.03227e-10, global = 2.57105e-11, cumulative = 2.47646e-10
GAMG:  Solving for p, Initial residual = 0.57238, Final residual = 0.0317804, No Iterations 4
time step continuity errors : sum local = 5.06569e-11, global = -5.86828e-12, cumulative = 2.41778e-10
GAMG:  Solving for p, Initial residual = 0.306539, Final residual = 0.0280972, No Iterations 4
time step continuity errors : sum local = 2.12267e-11, global = -6.76611e-12, cumulative = 2.35012e-10
GAMG:  Solving for p, Initial residual = 0.249362, Final residual = 0.01531, No Iterations 3
time step continuity errors : sum local = 6.72438e-12, global = 3.38525e-13, cumulative = 2.35351e-10
GAMG:  Solving for p, Initial residual = 0.178948, Final residual = 7.35849e-07, No Iterations 16
time step continuity errors : sum local = 2.15712e-16, global = -2.14109e-17, cumulative = 2.35351e-10
ExecutionTime = 0.07 s  ClockTime = 0 s

Time = 0.11

Courant Number mean: 0.00499533 max: 0.00949886
Bad Mood
Bad Mood
smoothSolver:  Solving for Ux, Initial residual = 0.000101681, Final residual = 8.53452e-06, No Iterations 7
smoothSolver:  Solving for Uy, Initial residual = 0.642917, Final residual = 8.20102e-06, No Iterations 29
GAMG:  Solving for p, Initial residual = 0.849586, Final residual = 0.0770059, No Iterations 4
time step continuity errors : sum local = 8.32323e-11, global = 2.01073e-11, cumulative = 2.55458e-10
GAMG:  Solving for p, Initial residual = 0.567728, Final residual = 0.0320292, No Iterations 4
time step continuity errors : sum local = 4.20492e-11, global = -4.57425e-12, cumulative = 2.50884e-10
GAMG:  Solving for p, Initial residual = 0.301002, Final residual = 0.0276412, No Iterations 4
time step continuity errors : sum local = 1.7591e-11, global = -5.40803e-12, cumulative = 2.45476e-10
GAMG:  Solving for p, Initial residual = 0.240258, Final residual = 0.0151749, No Iterations 3
time step continuity errors : sum local = 5.75991e-12, global = 3.05611e-13, cumulative = 2.45781e-10
GAMG:  Solving for p, Initial residual = 0.171788, Final residual = 6.86052e-07, No Iterations 16
time step continuity errors : sum local = 1.76358e-16, global = -1.59849e-17, cumulative = 2.45781e-10
ExecutionTime = 0.07 s  ClockTime = 0 s

Time = 0.12

Courant Number mean: 0.00499752 max: 0.00949939
Bad Mood
Bad Mood
smoothSolver:  Solving for Ux, Initial residual = 5.41056e-05, Final residual = 9.12057e-06, No Iterations 5
smoothSolver:  Solving for Uy, Initial residual = 0.605346, Final residual = 8.82818e-06, No Iterations 29
GAMG:  Solving for p, Initial residual = 0.837302, Final residual = 0.0743717, No Iterations 4
time step continuity errors : sum local = 6.32831e-11, global = 1.49027e-11, cumulative = 2.60684e-10
GAMG:  Solving for p, Initial residual = 0.559526, Final residual = 0.0362648, No Iterations 4
time step continuity errors : sum local = 3.73944e-11, global = -6.18973e-13, cumulative = 2.60065e-10
GAMG:  Solving for p, Initial residual = 0.299681, Final residual = 0.0226715, No Iterations 5
time step continuity errors : sum local = 1.17771e-11, global = 2.34648e-13, cumulative = 2.603e-10
GAMG:  Solving for p, Initial residual = 0.186352, Final residual = 0.0141745, No Iterations 3
time step continuity errors : sum local = 4.4425e-12, global = 4.04946e-13, cumulative = 2.60704e-10
GAMG:  Solving for p, Initial residual = 0.172052, Final residual = 6.93529e-07, No Iterations 16
time step continuity errors : sum local = 1.56972e-16, global = -9.48043e-18, cumulative = 2.60704e-10
ExecutionTime = 0.08 s  ClockTime = 0 s

Time = 0.13

Courant Number mean: 0.00499861 max: 0.00949966
Bad Mood
smoothSolver:  Solving for Ux, Initial residual = Bad Mood
3.02523e-05, Final residual = 7.2195e-06, No Iterations 4
smoothSolver:  Solving for Uy, Initial residual = 0.569544, Final residual = 9.29647e-06, No Iterations 29
GAMG:  Solving for p, Initial residual = 0.793552, Final residual = 0.0685771, No Iterations 4
time step continuity errors : sum local = 3.74589e-11, global = 8.32395e-12, cumulative = 2.69028e-10
GAMG:  Solving for p, Initial residual = 0.569119, Final residual = 0.0369691, No Iterations 4
time step continuity errors : sum local = 2.31025e-11, global = -2.94044e-13, cumulative = 2.68734e-10
GAMG:  Solving for p, Initial residual = 0.304654, Final residual = 0.0292441, No Iterations 4
time step continuity errors : sum local = 9.21879e-12, global = -2.1242e-12, cumulative = 2.6661e-10
GAMG:  Solving for p, Initial residual = 0.216251, Final residual = 0.0145138, No Iterations 3
time step continuity errors : sum local = 2.92927e-12, global = 2.19978e-13, cumulative = 2.6683e-10
GAMG:  Solving for p, Initial residual = 0.14431, Final residual = 5.46237e-07, No Iterations 16
time step continuity errors : sum local = 7.99474e-17, global = -6.5444e-18, cumulative = 2.6683e-10
ExecutionTime = 0.09 s  ClockTime = 0 s

Time = 0.14

Courant Number mean: 0.0049992 max: 0.0094998
Bad Mood
Bad Mood
smoothSolver:  Solving for Ux, Initial residual = 1.75793e-05, Final residual = 8.43715e-06, No Iterations 2
smoothSolver:  Solving for Uy, Initial residual = 0.537825, Final residual = 9.93972e-06, No Iterations 29
GAMG:  Solving for p, Initial residual = 0.79106, Final residual = 0.0661961, No Iterations 4
time step continuity errors : sum local = 2.45378e-11, global = 5.6487e-12, cumulative = 2.72479e-10
GAMG:  Solving for p, Initial residual = 0.531247, Final residual = 0.0282271, No Iterations 4
time step continuity errors : sum local = 1.25839e-11, global = -1.89483e-12, cumulative = 2.70584e-10
GAMG:  Solving for p, Initial residual = 0.249974, Final residual = 0.0228617, No Iterations 4
time step continuity errors : sum local = 5.56615e-12, global = -1.6245e-12, cumulative = 2.6896e-10
GAMG:  Solving for p, Initial residual = 0.183091, Final residual = 0.0115609, No Iterations 3
time step continuity errors : sum local = 1.94171e-12, global = 1.3041e-13, cumulative = 2.6909e-10
GAMG:  Solving for p, Initial residual = 0.128759, Final residual = 8.87866e-07, No Iterations 15
time step continuity errors : sum local = 1.10859e-16, global = 3.31494e-18, cumulative = 2.6909e-10
ExecutionTime = 0.09 s  ClockTime = 0 s

Time = 0.15

Courant Number mean: 0.00499947 max: 0.00949987
Bad Mood
Bad Mood
smoothSolver:  Solving for Ux, Initial residual = 1.15758e-05, Final residual = 7.88502e-06, No Iterations 1
smoothSolver:  Solving for Uy, Initial residual = 0.48662, Final residual = 7.10893e-06, No Iterations 30
GAMG:  Solving for p, Initial residual = 0.700382, Final residual = 0.0535313, No Iterations 4
time step continuity errors : sum local = 1.16702e-11, global = 2.45295e-12, cumulative = 2.71543e-10
GAMG:  Solving for p, Initial residual = 0.50969, Final residual = 0.0402862, No Iterations 4
time step continuity errors : sum local = 9.92502e-12, global = -9.46825e-13, cumulative = 2.70596e-10
GAMG:  Solving for p, Initial residual = 0.235857, Final residual = 0.0213849, No Iterations 5
time step continuity errors : sum local = 3.16785e-12, global = 1.09598e-13, cumulative = 2.70706e-10
GAMG:  Solving for p, Initial residual = 0.115266, Final residual = 0.00805683, No Iterations 3
time step continuity errors : sum local = 8.93049e-13, global = 4.36898e-14, cumulative = 2.70749e-10
GAMG:  Solving for p, Initial residual = 0.108712, Final residual = 8.48967e-07, No Iterations 15
time step continuity errors : sum local = 7.69243e-17, global = 3.54304e-19, cumulative = 2.70749e-10
ExecutionTime = 0.09 s  ClockTime = 0 s

Time = 0.16

Courant Number mean: 0.00499962 max: 0.00949991
Bad Mood
Bad Mood
smoothSolver:  Solving for Ux, Initial residual = 8.34905e-06, Final residual = 8.34905e-06, No Iterations 0
smoothSolver:  Solving for Uy, Initial residual = 0.429957, Final residual = 9.70376e-06, No Iterations 29
GAMG:  Solving for p, Initial residual = 0.387754, Final residual = 0.0282331, No Iterations 3
time step continuity errors : sum local = 2.67127e-12, global = -3.81808e-14, cumulative = 2.70711e-10
GAMG:  Solving for p, Initial residual = 0.354926, Final residual = 0.0145344, No Iterations 3
time step continuity errors : sum local = 1.33502e-12, global = 5.63791e-14, cumulative = 2.70768e-10
GAMG:  Solving for p, Initial residual = 0.0882706, Final residual = 0.00564857, No Iterations 3
time step continuity errors : sum local = 4.07329e-13, global = -2.77433e-14, cumulative = 2.7074e-10
GAMG:  Solving for p, Initial residual = 0.0528781, Final residual = 0.00347295, No Iterations 4
time step continuity errors : sum local = 2.26831e-13, global = -6.07724e-14, cumulative = 2.70679e-10
GAMG:  Solving for p, Initial residual = 0.0524243, Final residual = 6.56629e-07, No Iterations 15
time step continuity errors : sum local = 3.92319e-17, global = -2.63018e-18, cumulative = 2.70679e-10
ExecutionTime = 0.1 s  ClockTime = 0 s

Time = 0.17

Courant Number mean: 0.00499969 max: 0.00949992
Bad Mood
Bad Mood
smoothSolver:  Solving for Ux, Initial residual = 6.78315e-06, Final residual = 6.78315e-06, No Iterations 0
smoothSolver:  Solving for Uy, Initial residual = 0.277553, Final residual = 9.11287e-06, No Iterations 28
GAMG:  Solving for p, Initial residual = 0.215002, Final residual = 0.0112551, No Iterations 3
time step continuity errors : sum local = 6.8844e-13, global = -1.41345e-14, cumulative = 2.70665e-10
GAMG:  Solving for p, Initial residual = 0.199962, Final residual = 0.00850267, No Iterations 3
time step continuity errors : sum local = 5.13825e-13, global = 7.03024e-15, cumulative = 2.70672e-10
GAMG:  Solving for p, Initial residual = 0.055072, Final residual = 0.00335541, No Iterations 4
time step continuity errors : sum local = 1.78435e-13, global = -2.88456e-14, cumulative = 2.70643e-10
GAMG:  Solving for p, Initial residual = 0.0459059, Final residual = 0.00265888, No Iterations 4
time step continuity errors : sum local = 1.31681e-13, global = -3.04863e-14, cumulative = 2.70613e-10
GAMG:  Solving for p, Initial residual = 0.0454917, Final residual = 8.34947e-07, No Iterations 16
time step continuity errors : sum local = 3.86716e-17, global = 8.8942e-18, cumulative = 2.70613e-10
ExecutionTime = 0.11 s  ClockTime = 0 s

Time = 0.18

Courant Number mean: 0.00499975 max: 0.00949994
Bad Mood
Bad Mood
smoothSolver:  Solving for Ux, Initial residual = 5.48999e-06, Final residual = 5.48999e-06, No Iterations 0
smoothSolver:  Solving for Uy, Initial residual = 0.225858, Final residual = 7.75009e-06, No Iterations 27
GAMG:  Solving for p, Initial residual = 0.138987, Final residual = 0.00920128, No Iterations 3
time step continuity errors : sum local = 4.26172e-13, global = 3.14199e-15, cumulative = 2.70616e-10
GAMG:  Solving for p, Initial residual = 0.120695, Final residual = 0.00427747, No Iterations 3
time step continuity errors : sum local = 2.00266e-13, global = -1.36168e-14, cumulative = 2.70602e-10
GAMG:  Solving for p, Initial residual = 0.0406446, Final residual = 0.0021535, No Iterations 4
time step continuity errors : sum local = 9.53726e-14, global = -2.2576e-14, cumulative = 2.7058e-10
GAMG:  Solving for p, Initial residual = 0.0373321, Final residual = 0.00210388, No Iterations 4
time step continuity errors : sum local = 8.81964e-14, global = -2.08709e-14, cumulative = 2.70559e-10
GAMG:  Solving for p, Initial residual = 0.0383656, Final residual = 5.77149e-07, No Iterations 16
time step continuity errors : sum local = 2.28695e-17, global = 5.2528e-18, cumulative = 2.70559e-10
ExecutionTime = 0.11 s  ClockTime = 0 s

Time = 0.19

Courant Number mean: 0.0049998 max: 0.00949995
Bad Mood
Bad Mood
smoothSolver:  Solving for Ux, Initial residual = 4.44185e-06, Final residual = 4.44185e-06, No Iterations 0
smoothSolver:  Solving for Uy, Initial residual = 0.189824, Final residual = 7.76059e-06, No Iterations 25
GAMG:  Solving for p, Initial residual = 0.103131, Final residual = 0.00894191, No Iterations 3
time step continuity errors : sum local = 3.47277e-13, global = 2.81186e-14, cumulative = 2.70587e-10
GAMG:  Solving for p, Initial residual = 0.0814204, Final residual = 0.00667942, No Iterations 2
time step continuity errors : sum local = 2.60076e-13, global = -5.79967e-15, cumulative = 2.70581e-10
GAMG:  Solving for p, Initial residual = 0.0376871, Final residual = 0.00187042, No Iterations 4
time step continuity errors : sum local = 7.0002e-14, global = -1.72929e-14, cumulative = 2.70564e-10
GAMG:  Solving for p, Initial residual = 0.0339407, Final residual = 0.00196457, No Iterations 4
time step continuity errors : sum local = 6.92693e-14, global = -2.54045e-14, cumulative = 2.70538e-10
GAMG:  Solving for p, Initial residual = 0.0364203, Final residual = 9.66306e-07, No Iterations 16
time step continuity errors : sum local = 3.19674e-17, global = 6.73355e-18, cumulative = 2.70538e-10
ExecutionTime = 0.11 s  ClockTime = 0 s

Time = 0.2

Courant Number mean: 0.00499984 max: 0.00949996
Bad Mood
Bad Mood
smoothSolver:  Solving for Ux, Initial residual = 3.59352e-06, Final residual = 3.59352e-06, No Iterations 0
smoothSolver:  Solving for Uy, Initial residual = 0.164774, Final residual = 9.06431e-06, No Iterations 22
GAMG:  Solving for p, Initial residual = 0.0884074, Final residual = 0.00767876, No Iterations 3
time step continuity errors : sum local = 2.49239e-13, global = 2.31004e-14, cumulative = 2.70561e-10
GAMG:  Solving for p, Initial residual = 0.0674591, Final residual = 0.00402502, No Iterations 2
time step continuity errors : sum local = 1.30531e-13, global = -2.5527e-17, cumulative = 2.70561e-10
GAMG:  Solving for p, Initial residual = 0.0329406, Final residual = 0.00189546, No Iterations 4
time step continuity errors : sum local = 5.88689e-14, global = -1.77474e-14, cumulative = 2.70544e-10
GAMG:  Solving for p, Initial residual = 0.033872, Final residual = 0.00159131, No Iterations 4
time step continuity errors : sum local = 4.65015e-14, global = -1.3908e-14, cumulative = 2.7053e-10
GAMG:  Solving for p, Initial residual = 0.0357097, Final residual = 8.12739e-07, No Iterations 16
time step continuity errors : sum local = 2.21349e-17, global = 4.68245e-18, cumulative = 2.7053e-10
ExecutionTime = 0.12 s  ClockTime = 0 s

Time = 0.21

Courant Number mean: 0.00499987 max: 0.00949997
Bad Mood
Bad Mood
smoothSolver:  Solving for Ux, Initial residual = 0.0416672, Final residual = 8.45978e-06, No Iterations 3
smoothSolver:  Solving for Uy, Initial residual = 1, Final residual = 3.65824e-06, No Iterations 8
GAMG:  Solving for p, Initial residual = 1, Final residual = 0.0455644, No Iterations 3
time step continuity errors : sum local = 2.31911e-05, global = 1.59407e-06, cumulative = 1.59434e-06
GAMG:  Solving for p, Initial residual = 0.378636, Final residual = 0.0160276, No Iterations 3
time step continuity errors : sum local = 1.22463e-05, global = -2.81279e-08, cumulative = 1.56621e-06
GAMG:  Solving for p, Initial residual = 0.108597, Final residual = 0.0104807, No Iterations 2
time step continuity errors : sum local = 5.05188e-06, global = -2.13922e-07, cumulative = 1.35229e-06
GAMG:  Solving for p, Initial residual = 0.030711, Final residual = 0.00213169, No Iterations 3
time step continuity errors : sum local = 9.16843e-07, global = -2.68221e-08, cumulative = 1.32547e-06
GAMG:  Solving for p, Initial residual = 0.0108094, Final residual = 7.72782e-07, No Iterations 19
time step continuity errors : sum local = 3.25514e-10, global = 1.19776e-11, cumulative = 1.32548e-06
ExecutionTime = 0.13 s  ClockTime = 0 s

Time = 0.22

Courant Number mean: 0.00516379 max: 0.00995848
Bad Mood
Bad Mood
smoothSolver:  Solving for Ux, Initial residual = 0.00330009, Final residual = 7.48157e-06, No Iterations 3
smoothSolver:  Solving for Uy, Initial residual = 0.612889, Final residual = 5.91836e-06, No Iterations 7
GAMG:  Solving for p, Initial residual = 0.143682, Final residual = 0.00534083, No Iterations 3
time step continuity errors : sum local = 2.60849e-06, global = 7.51381e-08, cumulative = 1.40062e-06
GAMG:  Solving for p, Initial residual = 0.0622891, Final residual = 0.00248168, No Iterations 3
time step continuity errors : sum local = 1.30051e-06, global = -4.57885e-08, cumulative = 1.35483e-06
GAMG:  Solving for p, Initial residual = 0.013368, Final residual = 0.0013198, No Iterations 2
time step continuity errors : sum local = 6.47546e-07, global = -8.94173e-08, cumulative = 1.26541e-06
GAMG:  Solving for p, Initial residual = 0.00313574, Final residual = 0.000260839, No Iterations 3
time step continuity errors : sum local = 1.26349e-07, global = 1.72172e-08, cumulative = 1.28263e-06
GAMG:  Solving for p, Initial residual = 0.000885928, Final residual = 9.17806e-07, No Iterations 14
time step continuity errors : sum local = 4.43626e-10, global = 7.43656e-11, cumulative = 1.28271e-06
ExecutionTime = 0.14 s  ClockTime = 0 s

Time = 0.23

Courant Number mean: 0.00523797 max: 0.00999233
Bad Mood
Bad Mood
smoothSolver:  Solving for Ux, Initial residual = 0.00109721, Final residual = 5.61232e-06, No Iterations 3
smoothSolver:  Solving for Uy, Initial residual = 0.297519, Final residual = 5.11302e-06, No Iterations 7
GAMG:  Solving for p, Initial residual = 0.0879447, Final residual = 0.00780695, No Iterations 2
time step continuity errors : sum local = 4.0852e-06, global = 2.04627e-07, cumulative = 1.48733e-06
GAMG:  Solving for p, Initial residual = 0.0295576, Final residual = 0.00100887, No Iterations 3
time step continuity errors : sum local = 5.47087e-07, global = -3.30435e-09, cumulative = 1.48403e-06
GAMG:  Solving for p, Initial residual = 0.00798494, Final residual = 0.000750799, No Iterations 2
time step continuity errors : sum local = 3.92733e-07, global = -4.19242e-08, cumulative = 1.4421e-06
GAMG:  Solving for p, Initial residual = 0.001765, Final residual = 0.000115728, No Iterations 3
time step continuity errors : sum local = 6.00126e-08, global = -3.66201e-09, cumulative = 1.43844e-06
GAMG:  Solving for p, Initial residual = 0.000377241, Final residual = 7.36943e-07, No Iterations 13
time step continuity errors : sum local = 3.81539e-10, global = -1.40442e-11, cumulative = 1.43843e-06
ExecutionTime = 0.14 s  ClockTime = 0 s

Time = 0.24

Courant Number mean: 0.00527683 max: 0.0100001
Bad Mood
Bad Mood
smoothSolver:  Solving for Ux, Initial residual = 0.000740547, Final residual = 4.15173e-06, No Iterations 3
smoothSolver:  Solving for Uy, Initial residual = 0.191736, Final residual = 3.5039e-06, No Iterations 7
GAMG:  Solving for p, Initial residual = 0.0721451, Final residual = 0.00499943, No Iterations 2
time step continuity errors : sum local = 2.74469e-06, global = 1.20316e-07, cumulative = 1.55874e-06
GAMG:  Solving for p, Initial residual = 0.0203961, Final residual = 0.00193449, No Iterations 2
time step continuity errors : sum local = 1.09497e-06, global = -3.26517e-08, cumulative = 1.52609e-06
GAMG:  Solving for p, Initial residual = 0.0064791, Final residual = 0.000232735, No Iterations 3
time step continuity errors : sum local = 1.2869e-07, global = -9.36191e-10, cumulative = 1.52516e-06
GAMG:  Solving for p, Initial residual = 0.000794928, Final residual = 5.84414e-05, No Iterations 3
time step continuity errors : sum local = 3.21088e-08, global = -3.2934e-10, cumulative = 1.52483e-06
GAMG:  Solving for p, Initial residual = 0.000206873, Final residual = 7.88211e-07, No Iterations 10
time step continuity errors : sum local = 4.32891e-10, global = -1.57429e-11, cumulative = 1.52481e-06
ExecutionTime = 0.14 s  ClockTime = 0 s

Time = 0.25

Courant Number mean: 0.00530878 max: 0.0100049
Bad Mood
Bad Mood
smoothSolver:  Solving for Ux, Initial residual = 0.000544514, Final residual = 3.08096e-06, No Iterations 3
smoothSolver:  Solving for Uy, Initial residual = 0.129208, Final residual = 2.50476e-06, No Iterations 7
GAMG:  Solving for p, Initial residual = 0.054892, Final residual = 0.00356749, No Iterations 2
time step continuity errors : sum local = 2.04342e-06, global = 7.25996e-08, cumulative = 1.59741e-06
GAMG:  Solving for p, Initial residual = 0.0150972, Final residual = 0.001385, No Iterations 2
time step continuity errors : sum local = 8.11768e-07, global = -2.38991e-08, cumulative = 1.57351e-06
GAMG:  Solving for p, Initial residual = 0.00463296, Final residual = 0.000169252, No Iterations 3
time step continuity errors : sum local = 9.75893e-08, global = -2.51089e-10, cumulative = 1.57326e-06
GAMG:  Solving for p, Initial residual = 0.000594127, Final residual = 3.83066e-05, No Iterations 3
time step continuity errors : sum local = 2.1991e-08, global = -5.29362e-11, cumulative = 1.57321e-06
GAMG:  Solving for p, Initial residual = 0.000164947, Final residual = 7.65467e-07, No Iterations 9
time step continuity errors : sum local = 4.39324e-10, global = 2.72307e-11, cumulative = 1.57323e-06
ExecutionTime = 0.15 s  ClockTime = 0 s

Time = 0.26

Courant Number mean: 0.00533507 max: 0.0100083
Bad Mood
Bad Mood
smoothSolver:  Solving for Ux, Initial residual = 0.000408582, Final residual = 2.29844e-06, No Iterations 3
smoothSolver:  Solving for Uy, Initial residual = 0.0918002, Final residual = 8.07413e-06, No Iterations 6
GAMG:  Solving for p, Initial residual = 0.0420726, Final residual = 0.00262171, No Iterations 2
time step continuity errors : sum local = 1.55211e-06, global = 4.94867e-08, cumulative = 1.62272e-06
GAMG:  Solving for p, Initial residual = 0.0114395, Final residual = 0.00101297, No Iterations 2
time step continuity errors : sum local = 6.10231e-07, global = -1.6618e-08, cumulative = 1.6061e-06
GAMG:  Solving for p, Initial residual = 0.00340298, Final residual = 0.000135288, No Iterations 3
time step continuity errors : sum local = 8.05288e-08, global = 2.27992e-10, cumulative = 1.60633e-06
GAMG:  Solving for p, Initial residual = 0.000459137, Final residual = 3.47127e-05, No Iterations 3
time step continuity errors : sum local = 2.05977e-08, global = -1.1639e-09, cumulative = 1.60517e-06
GAMG:  Solving for p, Initial residual = 0.000133908, Final residual = 5.38878e-07, No Iterations 9
time step continuity errors : sum local = 3.19695e-10, global = 3.85002e-11, cumulative = 1.60521e-06
ExecutionTime = 0.15 s  ClockTime = 0 s

Time = 0.27

Courant Number mean: 0.00535514 max: 0.0100108
Bad Mood
Bad Mood
smoothSolver:  Solving for Ux, Initial residual = 0.000307706, Final residual = 9.40754e-06, No Iterations 2
smoothSolver:  Solving for Uy, Initial residual = 0.067564, Final residual = 6.02999e-06, No Iterations 6
GAMG:  Solving for p, Initial residual = 0.0319246, Final residual = 0.00198693, No Iterations 2
time step continuity errors : sum local = 1.2064e-06, global = 3.53998e-08, cumulative = 1.64061e-06
GAMG:  Solving for p, Initial residual = 0.00883186, Final residual = 0.000773066, No Iterations 2
time step continuity errors : sum local = 4.75617e-07, global = -1.26402e-08, cumulative = 1.62797e-06
GAMG:  Solving for p, Initial residual = 0.00257711, Final residual = 0.000102245, No Iterations 3
time step continuity errors : sum local = 6.23458e-08, global = 1.16363e-10, cumulative = 1.62808e-06
GAMG:  Solving for p, Initial residual = 0.000349168, Final residual = 2.57016e-05, No Iterations 3
time step continuity errors : sum local = 1.56358e-08, global = -1.96266e-11, cumulative = 1.62806e-06
GAMG:  Solving for p, Initial residual = 0.000102317, Final residual = 9.27819e-07, No Iterations 7
time step continuity errors : sum local = 5.64366e-10, global = 4.32453e-11, cumulative = 1.62811e-06
ExecutionTime = 0.16 s  ClockTime = 0 s

Time = 0.28

Courant Number mean: 0.00537068 max: 0.0100128
Bad Mood
Bad Mood
smoothSolver:  Solving for Ux, Initial residual = 0.000232532, Final residual = 7.0776e-06, No Iterations 2
smoothSolver:  Solving for Uy, Initial residual = 0.0502437, Final residual = 4.54973e-06, No Iterations 6
GAMG:  Solving for p, Initial residual = 0.0239055, Final residual = 0.00149694, No Iterations 2
time step continuity errors : sum local = 9.26552e-07, global = 2.68693e-08, cumulative = 1.65498e-06
GAMG:  Solving for p, Initial residual = 0.00674345, Final residual = 0.000584773, No Iterations 2
time step continuity errors : sum local = 3.656e-07, global = -1.02229e-08, cumulative = 1.64475e-06
GAMG:  Solving for p, Initial residual = 0.0019442, Final residual = 7.78468e-05, No Iterations 3
time step continuity errors : sum local = 4.83446e-08, global = 1.40128e-10, cumulative = 1.64489e-06
GAMG:  Solving for p, Initial residual = 0.00026172, Final residual = 1.93338e-05, No Iterations 3
time step continuity errors : sum local = 1.1986e-08, global = -7.05982e-11, cumulative = 1.64482e-06
GAMG:  Solving for p, Initial residual = 7.61686e-05, Final residual = 7.18875e-07, No Iterations 7
time step continuity errors : sum local = 4.45617e-10, global = 3.77447e-11, cumulative = 1.64486e-06
ExecutionTime = 0.16 s  ClockTime = 0 s

Time = 0.29

Courant Number mean: 0.00538308 max: 0.0100143
Bad Mood
Bad Mood
smoothSolver:  Solving for Ux, Initial residual = 0.000176162, Final residual = 5.33817e-06, No Iterations 2
smoothSolver:  Solving for Uy, Initial residual = 0.0380511, Final residual = 3.46308e-06, No Iterations 6
GAMG:  Solving for p, Initial residual = 0.0180816, Final residual = 0.00113871, No Iterations 2
time step continuity errors : sum local = 7.15242e-07, global = 1.9862e-08, cumulative = 1.66472e-06
GAMG:  Solving for p, Initial residual = 0.00515923, Final residual = 0.000445185, No Iterations 2
time step continuity errors : sum local = 2.81771e-07, global = -8.01486e-09, cumulative = 1.65671e-06
GAMG:  Solving for p, Initial residual = 0.00147839, Final residual = 5.94745e-05, No Iterations 3
time step continuity errors : sum local = 3.74526e-08, global = 4.78196e-11, cumulative = 1.65675e-06
GAMG:  Solving for p, Initial residual = 0.000198136, Final residual = 1.46655e-05, No Iterations 3
time step continuity errors : sum local = 9.22315e-09, global = 3.32831e-11, cumulative = 1.65679e-06
GAMG:  Solving for p, Initial residual = 5.76551e-05, Final residual = 9.51401e-07, No Iterations 6
time step continuity errors : sum local = 5.98289e-10, global = -4.34354e-12, cumulative = 1.65678e-06
ExecutionTime = 0.16 s  ClockTime = 0 s

Time = 0.3

Courant Number mean: 0.00539306 max: 0.0100154
Bad Mood
Bad Mood
smoothSolver:  Solving for Ux, Initial residual = 0.000133791, Final residual = 4.03598e-06, No Iterations 2
smoothSolver:  Solving for Uy, Initial residual = 0.0289831, Final residual = 2.65195e-06, No Iterations 6
GAMG:  Solving for p, Initial residual = 0.0137875, Final residual = 0.000869076, No Iterations 2
time step continuity errors : sum local = 5.52055e-07, global = 1.52236e-08, cumulative = 1.67201e-06
GAMG:  Solving for p, Initial residual = 0.00395952, Final residual = 0.000340917, No Iterations 2
time step continuity errors : sum local = 2.17828e-07, global = -6.36051e-09, cumulative = 1.66565e-06
GAMG:  Solving for p, Initial residual = 0.00112933, Final residual = 4.66697e-05, No Iterations 3
time step continuity errors : sum local = 2.97043e-08, global = 1.21635e-09, cumulative = 1.66686e-06
GAMG:  Solving for p, Initial residual = 0.000149212, Final residual = 1.24817e-05, No Iterations 3
time step continuity errors : sum local = 7.93645e-09, global = -1.27462e-09, cumulative = 1.66559e-06
GAMG:  Solving for p, Initial residual = 4.2464e-05, Final residual = 7.98743e-07, No Iterations 5
time step continuity errors : sum local = 5.07849e-10, global = 1.66727e-10, cumulative = 1.66575e-06
ExecutionTime = 0.16 s  ClockTime = 0 s

Time = 0.31

Courant Number mean: 0.00540089 max: 0.0100163
Bad Mood
Bad Mood
smoothSolver:  Solving for Ux, Initial residual = 0.000101851, Final residual = 3.06e-06, No Iterations 2
smoothSolver:  Solving for Uy, Initial residual = 0.0221594, Final residual = 8.96385e-06, No Iterations 5
GAMG:  Solving for p, Initial residual = 0.0105329, Final residual = 0.000666874, No Iterations 2
time step continuity errors : sum local = 4.27313e-07, global = 1.22637e-08, cumulative = 1.67802e-06
GAMG:  Solving for p, Initial residual = 0.00304225, Final residual = 0.000261278, No Iterations 2
time step continuity errors : sum local = 1.68178e-07, global = -4.75625e-09, cumulative = 1.67326e-06
GAMG:  Solving for p, Initial residual = 0.000865217, Final residual = 3.5736e-05, No Iterations 3
time step continuity errors : sum local = 2.29337e-08, global = 9.33936e-10, cumulative = 1.6742e-06
GAMG:  Solving for p, Initial residual = 0.000113626, Final residual = 9.34638e-06, No Iterations 3
time step continuity errors : sum local = 5.99354e-09, global = -9.95668e-10, cumulative = 1.6732e-06
GAMG:  Solving for p, Initial residual = 3.22141e-05, Final residual = 5.60263e-07, No Iterations 5
time step continuity errors : sum local = 3.59267e-10, global = 1.29743e-10, cumulative = 1.67333e-06
ExecutionTime = 0.17 s  ClockTime = 0 s

Time = 0.32

Courant Number mean: 0.00540699 max: 0.010017
Bad Mood
Bad Mood
smoothSolver:  Solving for Ux, Initial residual = 7.77081e-05, Final residual = 2.32732e-06, No Iterations 2
smoothSolver:  Solving for Uy, Initial residual = 0.0169783, Final residual = 6.90712e-06, No Iterations 5
GAMG:  Solving for p, Initial residual = 0.00806327, Final residual = 0.000512419, No Iterations 2
time step continuity errors : sum local = 3.30567e-07, global = 8.87532e-09, cumulative = 1.68221e-06
GAMG:  Solving for p, Initial residual = 0.00234391, Final residual = 0.000200932, No Iterations 2
time step continuity errors : sum local = 1.30079e-07, global = -3.90042e-09, cumulative = 1.67831e-06
GAMG:  Solving for p, Initial residual = 0.000665184, Final residual = 2.77767e-05, No Iterations 3
time step continuity errors : sum local = 1.79407e-08, global = 7.38021e-10, cumulative = 1.67904e-06
GAMG:  Solving for p, Initial residual = 8.71202e-05, Final residual = 6.98242e-06, No Iterations 3
time step continuity errors : sum local = 4.50727e-09, global = -8.47721e-10, cumulative = 1.6782e-06
GAMG:  Solving for p, Initial residual = 2.45223e-05, Final residual = 5.09169e-07, No Iterations 5
time step continuity errors : sum local = 3.2867e-10, global = 1.09652e-10, cumulative = 1.67831e-06
ExecutionTime = 0.17 s  ClockTime = 0 s

Time = 0.33

Courant Number mean: 0.00541176 max: 0.0100176
Bad Mood
Bad Mood
smoothSolver:  Solving for Ux, Initial residual = 5.94466e-05, Final residual = 9.92885e-06, No Iterations 1
smoothSolver:  Solving for Uy, Initial residual = 0.0130617, Final residual = 5.33838e-06, No Iterations 5
GAMG:  Solving for p, Initial residual = 0.0063154, Final residual = 0.000414819, No Iterations 2
time step continuity errors : sum local = 2.69014e-07, global = 7.7211e-09, cumulative = 1.68603e-06
GAMG:  Solving for p, Initial residual = 0.00195131, Final residual = 0.0001714, No Iterations 2
time step continuity errors : sum local = 1.11457e-07, global = -2.63543e-09, cumulative = 1.68339e-06
GAMG:  Solving for p, Initial residual = 0.000546159, Final residual = 2.16785e-05, No Iterations 3
time step continuity errors : sum local = 1.40718e-08, global = 2.27262e-10, cumulative = 1.68362e-06
GAMG:  Solving for p, Initial residual = 7.47795e-05, Final residual = 5.31997e-06, No Iterations 3
time step continuity errors : sum local = 3.45174e-09, global = -6.2889e-10, cumulative = 1.68299e-06
GAMG:  Solving for p, Initial residual = 2.02223e-05, Final residual = 6.84689e-07, No Iterations 3
time step continuity errors : sum local = 4.44239e-10, global = 1.30973e-10, cumulative = 1.68312e-06
ExecutionTime = 0.17 s  ClockTime = 0 s

Time = 0.34

Courant Number mean: 0.00541545 max: 0.010018
Bad Mood
Bad Mood
smoothSolver:  Solving for Ux, Initial residual = 4.57039e-05, Final residual = 7.61847e-06, No Iterations 1
smoothSolver:  Solving for Uy, Initial residual = 0.0100365, Final residual = 4.13209e-06, No Iterations 5
GAMG:  Solving for p, Initial residual = 0.00484869, Final residual = 0.000320099, No Iterations 2
time step continuity errors : sum local = 2.08428e-07, global = 6.13209e-09, cumulative = 1.68925e-06
GAMG:  Solving for p, Initial residual = 0.0015052, Final residual = 0.000132327, No Iterations 2
time step continuity errors : sum local = 8.63429e-08, global = -1.8317e-09, cumulative = 1.68742e-06
GAMG:  Solving for p, Initial residual = 0.000421073, Final residual = 1.64942e-05, No Iterations 3
time step continuity errors : sum local = 1.07477e-08, global = 2.22208e-10, cumulative = 1.68764e-06
GAMG:  Solving for p, Initial residual = 5.75552e-05, Final residual = 4.13508e-06, No Iterations 3
time step continuity errors : sum local = 2.69352e-09, global = -4.63428e-10, cumulative = 1.68718e-06
GAMG:  Solving for p, Initial residual = 1.55957e-05, Final residual = 5.23563e-07, No Iterations 3
time step continuity errors : sum local = 3.41036e-10, global = 7.26811e-11, cumulative = 1.68725e-06
ExecutionTime = 0.18 s  ClockTime = 0 s

Time = 0.35

Courant Number mean: 0.00541833 max: 0.0100183
Bad Mood
Bad Mood
smoothSolver:  Solving for Ux, Initial residual = 3.51914e-05, Final residual = 5.85689e-06, No Iterations 1
smoothSolver:  Solving for Uy, Initial residual = 0.00775131, Final residual = 3.2071e-06, No Iterations 5
GAMG:  Solving for p, Initial residual = 0.00375181, Final residual = 0.000247879, No Iterations 2
time step continuity errors : sum local = 1.61908e-07, global = 4.64117e-09, cumulative = 1.69189e-06
GAMG:  Solving for p, Initial residual = 0.00116738, Final residual = 0.00010257, No Iterations 2
time step continuity errors : sum local = 6.71041e-08, global = -1.50481e-09, cumulative = 1.69039e-06
GAMG:  Solving for p, Initial residual = 0.000326131, Final residual = 1.29125e-05, No Iterations 3
time step continuity errors : sum local = 8.43877e-09, global = 1.78437e-10, cumulative = 1.69057e-06
GAMG:  Solving for p, Initial residual = 4.4708e-05, Final residual = 3.21567e-06, No Iterations 3
time step continuity errors : sum local = 2.101e-09, global = -3.65376e-10, cumulative = 1.6902e-06
GAMG:  Solving for p, Initial residual = 1.21142e-05, Final residual = 9.51231e-07, No Iterations 2
time step continuity errors : sum local = 6.21496e-10, global = -1.37612e-11, cumulative = 1.69019e-06
ExecutionTime = 0.18 s  ClockTime = 0 s

Time = 0.36

Courant Number mean: 0.00542057 max: 0.0100186
Bad Mood
Bad Mood
smoothSolver:  Solving for Ux, Initial residual = 2.7153e-05, Final residual = 4.51829e-06, No Iterations 1
smoothSolver:  Solving for Uy, Initial residual = 0.00600072, Final residual = 2.49372e-06, No Iterations 5
GAMG:  Solving for p, Initial residual = 0.00290803, Final residual = 0.000192531, No Iterations 2
time step continuity errors : sum local = 1.26061e-07, global = 3.56699e-09, cumulative = 1.69375e-06
GAMG:  Solving for p, Initial residual = 0.000906878, Final residual = 7.96471e-05, No Iterations 2
time step continuity errors : sum local = 5.22144e-08, global = -1.14797e-09, cumulative = 1.69261e-06
GAMG:  Solving for p, Initial residual = 0.000253128, Final residual = 1.00435e-05, No Iterations 3
time step continuity errors : sum local = 6.57881e-09, global = 1.52288e-10, cumulative = 1.69276e-06
GAMG:  Solving for p, Initial residual = 3.47304e-05, Final residual = 2.52339e-06, No Iterations 3
time step continuity errors : sum local = 1.65257e-09, global = -2.82094e-10, cumulative = 1.69248e-06
GAMG:  Solving for p, Initial residual = 9.41262e-06, Final residual = 7.24089e-07, No Iterations 2
time step continuity errors : sum local = 4.74204e-10, global = -8.44243e-12, cumulative = 1.69247e-06
ExecutionTime = 0.19 s  ClockTime = 0 s

Time = 0.37

Courant Number mean: 0.00542232 max: 0.0100188
Bad Mood
Bad Mood
smoothSolver:  Solving for Ux, Initial residual = 2.10086e-05, Final residual = 3.50023e-06, No Iterations 1
smoothSolver:  Solving for Uy, Initial residual = 0.00465021, Final residual = 8.48214e-06, No Iterations 4
GAMG:  Solving for p, Initial residual = 0.00225326, Final residual = 0.000149119, No Iterations 2
time step continuity errors : sum local = 9.78188e-08, global = 2.73819e-09, cumulative = 1.69521e-06
GAMG:  Solving for p, Initial residual = 0.000703506, Final residual = 6.16616e-05, No Iterations 2
time step continuity errors : sum local = 4.04879e-08, global = -9.19307e-10, cumulative = 1.69429e-06
GAMG:  Solving for p, Initial residual = 0.000195948, Final residual = 7.84659e-06, No Iterations 3
time step continuity errors : sum local = 5.14892e-09, global = 1.25894e-10, cumulative = 1.69441e-06
GAMG:  Solving for p, Initial residual = 2.69548e-05, Final residual = 1.97807e-06, No Iterations 3
time step continuity errors : sum local = 1.2978e-09, global = -2.21899e-10, cumulative = 1.69419e-06
GAMG:  Solving for p, Initial residual = 7.33642e-06, Final residual = 5.74397e-07, No Iterations 2
time step continuity errors : sum local = 3.76857e-10, global = -7.26598e-12, cumulative = 1.69418e-06
ExecutionTime = 0.19 s  ClockTime = 0 s

Time = 0.38

Courant Number mean: 0.00542368 max: 0.010019
Bad Mood
Bad Mood
smoothSolver:  Solving for Ux, Initial residual = 1.63311e-05, Final residual = 2.72443e-06, No Iterations 1
smoothSolver:  Solving for Uy, Initial residual = 0.00360965, Final residual = 6.60337e-06, No Iterations 4
GAMG:  Solving for p, Initial residual = 0.00174906, Final residual = 0.000115881, No Iterations 2
time step continuity errors : sum local = 7.61257e-08, global = 2.11398e-09, cumulative = 1.6963e-06
GAMG:  Solving for p, Initial residual = 0.000547461, Final residual = 4.79434e-05, No Iterations 2
time step continuity errors : sum local = 3.15193e-08, global = -7.23081e-10, cumulative = 1.69557e-06
GAMG:  Solving for p, Initial residual = 0.000152263, Final residual = 6.13444e-06, No Iterations 3
time step continuity errors : sum local = 4.03096e-09, global = 1.04656e-10, cumulative = 1.69568e-06
GAMG:  Solving for p, Initial residual = 2.09732e-05, Final residual = 1.55736e-06, No Iterations 3
time step continuity errors : sum local = 1.02322e-09, global = -1.73536e-10, cumulative = 1.69551e-06
GAMG:  Solving for p, Initial residual = 5.72599e-06, Final residual = 4.53001e-07, No Iterations 2
time step continuity errors : sum local = 2.97631e-10, global = -5.59068e-12, cumulative = 1.6955e-06
ExecutionTime = 0.19 s  ClockTime = 0 s

Time = 0.39

Courant Number mean: 0.00542473 max: 0.0100191
Bad Mood
Bad Mood
smoothSolver:  Solving for Ux, Initial residual = 1.27421e-05, Final residual = 2.1322e-06, No Iterations 1
smoothSolver:  Solving for Uy, Initial residual = 0.00280478, Final residual = 5.14453e-06, No Iterations 4
GAMG:  Solving for p, Initial residual = 0.00135882, Final residual = 9.01269e-05, No Iterations 2
time step continuity errors : sum local = 5.92741e-08, global = 1.62919e-09, cumulative = 1.69713e-06
GAMG:  Solving for p, Initial residual = 0.000426439, Final residual = 3.73066e-05, No Iterations 2
time step continuity errors : sum local = 2.45499e-08, global = -5.72393e-10, cumulative = 1.69656e-06
GAMG:  Solving for p, Initial residual = 0.000118417, Final residual = 4.80145e-06, No Iterations 3
time step continuity errors : sum local = 3.15842e-09, global = 8.67737e-11, cumulative = 1.69664e-06
GAMG:  Solving for p, Initial residual = 1.63292e-05, Final residual = 1.22569e-06, No Iterations 3
time step continuity errors : sum local = 8.06189e-10, global = -1.35547e-10, cumulative = 1.69651e-06
GAMG:  Solving for p, Initial residual = 4.47486e-06, Final residual = 3.58711e-07, No Iterations 2
time step continuity errors : sum local = 2.35939e-10, global = -4.4897e-12, cumulative = 1.6965e-06
ExecutionTime = 0.19 s  ClockTime = 0 s

Time = 0.4

Courant Number mean: 0.00542555 max: 0.0100192
Bad Mood
Bad Mood
smoothSolver:  Solving for Ux, Initial residual = 9.97894e-06, Final residual = 9.97894e-06, No Iterations 0
smoothSolver:  Solving for Uy, Initial residual = 0.00218121, Final residual = 4.01024e-06, No Iterations 4
GAMG:  Solving for p, Initial residual = 0.00123777, Final residual = 8.92401e-05, No Iterations 2
time step continuity errors : sum local = 5.87426e-08, global = 1.96004e-09, cumulative = 1.69846e-06
GAMG:  Solving for p, Initial residual = 0.000488138, Final residual = 4.56548e-05, No Iterations 2
time step continuity errors : sum local = 3.00659e-08, global = -3.07967e-10, cumulative = 1.69816e-06
GAMG:  Solving for p, Initial residual = 0.000129432, Final residual = 1.27984e-05, No Iterations 2
time step continuity errors : sum local = 8.42577e-09, global = -6.73353e-10, cumulative = 1.69748e-06
GAMG:  Solving for p, Initial residual = 1.86411e-05, Final residual = 1.11866e-06, No Iterations 3
time step continuity errors : sum local = 7.36415e-10, global = 7.84984e-11, cumulative = 1.69756e-06
GAMG:  Solving for p, Initial residual = 9.08556e-06, Final residual = 5.71232e-07, No Iterations 3
time step continuity errors : sum local = 3.76042e-10, global = -1.67844e-11, cumulative = 1.69754e-06
ExecutionTime = 0.2 s  ClockTime = 0 s

Time = 0.41

Courant Number mean: 0.00542617 max: 0.0100193
Using all 2 for LAMMPS simulation
LAMMPS (14 May 2016)
FlagRunMe on proc 0equal to 1FlagRunMe on proc 1equal to 0Using all 2 for LAMMPS simulation
