++ blockMesh
/*---------------------------------------------------------------------------*\
| =========                 |                                                 |
| \\      /  F ield         | OpenFOAM: The Open Source CFD Toolbox           |
|  \\    /   O peration     | Version:  5.0                                   |
|   \\  /    A nd           | Web:      www.OpenFOAM.org                      |
|    \\/     M anipulation  |                                                 |
\*---------------------------------------------------------------------------*/
Build  : 5.0-dbb428a3a855
Exec   : blockMesh
Date   : Nov 07 2017
Time   : 17:05:43
Host   : "hermes-N552VW"
PID    : 6641
I/O    : uncollated
Case   : /home/hermes/Desktop/gitDPD/DPDCFD/poiseuilleflow
nProcs : 1
sigFpe : Enabling floating point exception trapping (FOAM_SIGFPE).
fileModificationChecking : Monitoring run-time modified files using timeStampMaster (fileModificationSkew 10)
allowSystemOperations : Allowing user-supplied system call operations

// * * * * * * * * * * * * * * * * * * * * * * * * * * * * * * * * * * * * * //
Create time

Deleting polyMesh directory
    "/home/hermes/Desktop/gitDPD/DPDCFD/poiseuilleflow/constant/polyMesh"
Creating block mesh from
    "/home/hermes/Desktop/gitDPD/DPDCFD/poiseuilleflow/system/blockMeshDict"
Creating block edges
No non-planar block faces defined
Creating topology blocks
Creating topology patches

Creating block mesh topology

Check topology

	Basic statistics
		Number of internal faces : 0
		Number of boundary faces : 6
		Number of defined boundary faces : 6
		Number of undefined boundary faces : 0
	Checking patch -> block consistency

Creating block offsets
Creating merge list .

Creating polyMesh from blockMesh
Creating patches
Creating cells
Creating points with scale 0.1
    Block 0 cell size :
        i : 0.1 .. 0.1
        j : 0.02 .. 0.02
        k : 0.01 .. 0.01


Writing polyMesh
----------------
Mesh Information
----------------
  boundingBox: (0 0 0) (1 0.1 0.01)
  nPoints: 132
  nCells: 50
  nFaces: 215
  nInternalFaces: 85
----------------
Patches
----------------
  patch 0 (start: 85 size: 10) name: top
  patch 1 (start: 95 size: 10) name: bottom
  patch 2 (start: 105 size: 5) name: inlet
  patch 3 (start: 110 size: 5) name: outlet
  patch 4 (start: 115 size: 100) name: frontAndBack

End

++ decomposePar
/*---------------------------------------------------------------------------*\
| =========                 |                                                 |
| \\      /  F ield         | OpenFOAM: The Open Source CFD Toolbox           |
|  \\    /   O peration     | Version:  5.0                                   |
|   \\  /    A nd           | Web:      www.OpenFOAM.org                      |
|    \\/     M anipulation  |                                                 |
\*---------------------------------------------------------------------------*/
Build  : 5.0-dbb428a3a855
Exec   : decomposePar
Date   : Nov 07 2017
Time   : 17:05:43
Host   : "hermes-N552VW"
PID    : 6642
I/O    : uncollated
Case   : /home/hermes/Desktop/gitDPD/DPDCFD/poiseuilleflow
nProcs : 1
sigFpe : Enabling floating point exception trapping (FOAM_SIGFPE).
fileModificationChecking : Monitoring run-time modified files using timeStampMaster (fileModificationSkew 10)
allowSystemOperations : Allowing user-supplied system call operations

// * * * * * * * * * * * * * * * * * * * * * * * * * * * * * * * * * * * * * //
Create time



Decomposing mesh region0



--> FOAM FATAL ERROR: 
Case is already decomposed with 2 domains, use the -force option or manually
remove processor directories before decomposing. e.g.,
    rm -rf /home/hermes/Desktop/gitDPD/DPDCFD/poiseuilleflow/processor*


    From function int main(int, char**)
    in file decomposePar.C at line 438.

FOAM exiting

++ export LD_LIBRARY_PATH=/home/hermes/Desktop/Programmi/Lammps/lammps-14May16/src:/opt/ThirdParty-5.0/platforms/linux64Gcc/gperftools-svn/lib:/opt/paraviewopenfoam54/lib/paraview-5.4:/opt/openfoam5/platforms/linux64GccDPInt32Opt/lib/:/opt/ThirdParty-5.0/platforms/linux64GccDPInt32/lib/:/home/hermes/Desktop/Programmi/MPI/install//lib:/home/hermes/OpenFOAM/hermes-5.0/platforms/linux64GccDPInt32Opt/lib:/opt/site/5.0/platforms/linux64GccDPInt32Opt/lib:/opt/openfoam5/platforms/linux64GccDPInt32Opt/lib:/opt/ThirdParty-5.0/platforms/linux64GccDPInt32/lib:/opt/openfoam5/platforms/linux64GccDPInt32Opt/lib/dummy
++ LD_LIBRARY_PATH=/home/hermes/Desktop/Programmi/Lammps/lammps-14May16/src:/opt/ThirdParty-5.0/platforms/linux64Gcc/gperftools-svn/lib:/opt/paraviewopenfoam54/lib/paraview-5.4:/opt/openfoam5/platforms/linux64GccDPInt32Opt/lib/:/opt/ThirdParty-5.0/platforms/linux64GccDPInt32/lib/:/home/hermes/Desktop/Programmi/MPI/install//lib:/home/hermes/OpenFOAM/hermes-5.0/platforms/linux64GccDPInt32Opt/lib:/opt/site/5.0/platforms/linux64GccDPInt32Opt/lib:/opt/openfoam5/platforms/linux64GccDPInt32Opt/lib:/opt/ThirdParty-5.0/platforms/linux64GccDPInt32/lib:/opt/openfoam5/platforms/linux64GccDPInt32Opt/lib/dummy
++ export LD_LIBRARY_PATH=/home/hermes/Desktop/Programmi/MPI/install/bin:/home/hermes/Desktop/Programmi/Lammps/lammps-14May16/src:/opt/ThirdParty-5.0/platforms/linux64Gcc/gperftools-svn/lib:/opt/paraviewopenfoam54/lib/paraview-5.4:/opt/openfoam5/platforms/linux64GccDPInt32Opt/lib/:/opt/ThirdParty-5.0/platforms/linux64GccDPInt32/lib/:/home/hermes/Desktop/Programmi/MPI/install//lib:/home/hermes/OpenFOAM/hermes-5.0/platforms/linux64GccDPInt32Opt/lib:/opt/site/5.0/platforms/linux64GccDPInt32Opt/lib:/opt/openfoam5/platforms/linux64GccDPInt32Opt/lib:/opt/ThirdParty-5.0/platforms/linux64GccDPInt32/lib:/opt/openfoam5/platforms/linux64GccDPInt32Opt/lib/dummy
++ LD_LIBRARY_PATH=/home/hermes/Desktop/Programmi/MPI/install/bin:/home/hermes/Desktop/Programmi/Lammps/lammps-14May16/src:/opt/ThirdParty-5.0/platforms/linux64Gcc/gperftools-svn/lib:/opt/paraviewopenfoam54/lib/paraview-5.4:/opt/openfoam5/platforms/linux64GccDPInt32Opt/lib/:/opt/ThirdParty-5.0/platforms/linux64GccDPInt32/lib/:/home/hermes/Desktop/Programmi/MPI/install//lib:/home/hermes/OpenFOAM/hermes-5.0/platforms/linux64GccDPInt32Opt/lib:/opt/site/5.0/platforms/linux64GccDPInt32Opt/lib:/opt/openfoam5/platforms/linux64GccDPInt32Opt/lib:/opt/ThirdParty-5.0/platforms/linux64GccDPInt32/lib:/opt/openfoam5/platforms/linux64GccDPInt32Opt/lib/dummy
++ /home/hermes/Desktop/Programmi/MPI/install/bin/mpirun -n 2 AnonNewtonianIcoFoam -parallel
/*---------------------------------------------------------------------------*\
| =========                 |                                                 |
| \\      /  F ield         | OpenFOAM: The Open Source CFD Toolbox           |
|  \\    /   O peration     | Version:  5.0                                   |
|   \\  /    A nd           | Web:      www.OpenFOAM.org                      |
|    \\/     M anipulation  |                                                 |
\*---------------------------------------------------------------------------*/
Build  : 5.0-dbb428a3a855
Exec   : AnonNewtonianIcoFoam -parallel
Date   : Nov 07 2017
Time   : 17:05:43
Host   : "hermes-N552VW"
PID    : 6645
I/O    : uncollated
Case   : /home/hermes/Desktop/gitDPD/DPDCFD/poiseuilleflow
nProcs : 2
Slaves : 1("hermes-N552VW.6646")
Pstream initialized with:
    floatTransfer      : 0
    nProcsSimpleSum    : 0
    commsType          : nonBlocking
    polling iterations : 0
sigFpe : Enabling floating point exception trapping (FOAM_SIGFPE).
fileModificationChecking : Monitoring run-time modified files using timeStampMaster (fileModificationSkew 10)
allowSystemOperations : Allowing user-supplied system call operations

// * * * * * * * * * * * * * * * * * * * * * * * * * * * * * * * * * * * * * //
Create time

Create mesh, no clear-out for time = 0


PISO: Operating solver in PISO mode

Reading field p

Reading field U

Hey! I am faking the viscosity 

Reading/calculating face flux field phi

Selecting incompressible transport model CrossPowerLaw

Starting time loop

Time = 0.01

Courant Number mean: 0.1 max: 0.1
smoothSolver:  Solving for Ux, Initial residual = 1, Final residual = 6.56804e-06, No Iterations 13
smoothSolver:  Solving for Uy, Initial residual = 0.996488, Final residual = 4.22069e-06, No Iterations 10
GAMG:  Solving for p, Initial residual = 1, Final residual = 0.0631586, No Iterations 5
time step continuity errors : sum local = 0.00108588, global = -9.31667e-05, cumulative = -9.31667e-05
GAMG:  Solving for p, Initial residual = 0.218916, Final residual = 0.0205008, No Iterations 5
time step continuity errors : sum local = 0.000918407, global = 8.50653e-05, cumulative = -8.10136e-06
GAMG:  Solving for p, Initial residual = 0.144608, Final residual = 0.00881315, No Iterations 5
time step continuity errors : sum local = 0.000152784, global = 1.29824e-05, cumulative = 4.88102e-06
GAMG:  Solving for p, Initial residual = 0.0502852, Final residual = 0.00438883, No Iterations 2
time step continuity errors : sum local = 6.31702e-05, global = -4.97989e-06, cumulative = -9.88651e-08
GAMG:  Solving for p, Initial residual = 0.0273813, Final residual = 7.87936e-07, No Iterations 18
time step continuity errors : sum local = 1.0733e-08, global = -7.07804e-10, cumulative = -9.9573e-08
11







ExecutionTime = 0 s  ClockTime = 0 s

Time = 0.02

Courant Number mean: 0.0844079 max: 0.109674
smoothSolver:  Solving for Ux, Initial residual = 0.100953, Final residual = 7.32245e-06, No Iterations 10
smoothSolver:  Solving for Uy, Initial residual = 0.623784, Final residual = 5.13783e-06, No Iterations 10
GAMG:  Solving for p, Initial residual = 0.0451864, Final residual = 0.00282425, No Iterations 3
time step continuity errors : sum local = 3.68278e-05, global = 3.08111e-07, cumulative = 2.08538e-07
GAMG:  Solving for p, Initial residual = 0.0164799, Final residual = 0.00115362, No Iterations 4
time step continuity errors : sum local = 1.46667e-05, global = -1.38189e-06, cumulative = -1.17336e-06
GAMG:  Solving for p, Initial residual = 0.00537074, Final residual = 0.000310278, No Iterations 4
time step continuity errors : sum local = 3.92862e-06, global = -1.36406e-07, cumulative = -1.30976e-06
GAMG:  Solving for p, Initial residual = 0.00254291, Final residual = 0.000161844, No Iterations 4
time step continuity errors : sum local = 2.04851e-06, global = 1.93998e-07, cumulative = -1.11576e-06
GAMG:  Solving for p, Initial residual = 0.0014329, Final residual = 9.86594e-07, No Iterations 12
time step continuity errors : sum local = 1.25063e-08, global = 7.90234e-10, cumulative = -1.11497e-06
22







ExecutionTime = 0.01 s  ClockTime = 0 s

Time = 0.03

Courant Number mean: 0.079071 max: 0.111883
smoothSolver:  Solving for Ux, Initial residual = 0.0280718, Final residual = 4.68484e-06, No Iterations 10
smoothSolver:  Solving for Uy, Initial residual = 0.211515, Final residual = 9.79842e-06, No Iterations 7
GAMG:  Solving for p, Initial residual = 0.00674342, Final residual = 0.0006548, No Iterations 2
time step continuity errors : sum local = 8.26664e-06, global = 4.69578e-07, cumulative = -6.45395e-07
GAMG:  Solving for p, Initial residual = 0.00195823, Final residual = 0.00019385, No Iterations 4
time step continuity errors : sum local = 2.43573e-06, global = -2.77948e-07, cumulative = -9.23343e-07
GAMG:  Solving for p, Initial residual = 0.000640023, Final residual = 4.76558e-05, No Iterations 3
time step continuity errors : sum local = 5.9894e-07, global = -1.11566e-08, cumulative = -9.345e-07
GAMG:  Solving for p, Initial residual = 0.000388739, Final residual = 2.91818e-05, No Iterations 4
time step continuity errors : sum local = 3.66968e-07, global = 3.93972e-08, cumulative = -8.95103e-07
GAMG:  Solving for p, Initial residual = 0.000224183, Final residual = 5.85061e-07, No Iterations 10
time step continuity errors : sum local = 7.36001e-09, global = 4.67769e-10, cumulative = -8.94635e-07
3



ExecutionTime = 0.02 s  ClockTime = 0 s

Time = 0.04

Courant Number mean: 0.0763249 max: 0.111111
smoothSolver:  Solving for Ux, Initial residual = 0.0124425, Final residual = 7.39648e-06, No Iterations 9
smoothSolver:  Solving for Uy, Initial residual = 0.142547, Final residual = 4.55354e-06, No Iterations 9
GAMG:  Solving for p, Initial residual = 0.00251046, Final residual = 0.000242369, No Iterations 3
time step continuity errors : sum local = 3.04368e-06, global = -3.41283e-07, cumulative = -1.23592e-06
GAMG:  Solving for p, Initial residual = 0.000514594, Final residual = 3.43204e-05, No Iterations 4
time step continuity errors : sum local = 4.30181e-07, global = -4.92927e-08, cumulative = -1.28521e-06
GAMG:  Solving for p, Initial residual = 0.000223247, Final residual = 1.69743e-05, No Iterations 4
time step continuity errors : sum local = 2.12844e-07, global = 2.35021e-08, cumulative = -1.26171e-06
GAMG:  Solving for p, Initial residual = 0.00014872, Final residual = 1.33031e-05, No Iterations 4
time step continuity errors : sum local = 1.66847e-07, global = 1.37453e-08, cumulative = -1.24796e-06
3



GAMG:  Solving for p, Initial residual = 8.35425e-05, Final residual = 6.5266e-07, No Iterations 8
time step continuity errors : sum local = 8.18668e-09, global = 5.05866e-10, cumulative = -1.24746e-06
44







ExecutionTime = 0.02 s  ClockTime = 0 s

Time = 0.05

Courant Number mean: 0.0745247 max: 0.109495
smoothSolver:  Solving for Ux, Initial residual = 0.00834586, Final residual = 5.64788e-06, No Iterations 9
smoothSolver:  Solving for Uy, Initial residual = 0.234345, Final residual = 7.81473e-06, No Iterations 9
GAMG:  Solving for p, Initial residual = 0.00111318, Final residual = 8.77446e-05, No Iterations 3
time step continuity errors : sum local = 1.09974e-06, global = -5.55353e-08, cumulative = -1.30299e-06
GAMG:  Solving for p, Initial residual = 0.000252358, Final residual = 2.13644e-05, No Iterations 4
time step continuity errors : sum local = 2.67566e-07, global = -3.11258e-08, cumulative = -1.33412e-06
GAMG:  Solving for p, Initial residual = 8.54451e-05, Final residual = 6.57894e-06, No Iterations 3
time step continuity errors : sum local = 8.24146e-08, global = -4.28093e-09, cumulative = -1.3384e-06
GAMG:  Solving for p, Initial residual = 5.74355e-05, Final residual = 4.99451e-06, No Iterations 4
time step continuity errors : sum local = 6.25728e-08, global = 6.67554e-09, cumulative = -1.33172e-06
GAMG:  Solving for p, Initial residual = 3.4792e-05, Final residual = 8.95341e-07, No Iterations 6
time step continuity errors : sum local = 1.12178e-08, global = 6.98109e-10, cumulative = -1.33103e-06
55







ExecutionTime = 0.02 s  ClockTime = 0 s

Time = 0.06

Courant Number mean: 0.0732029 max: 0.10784
smoothSolver:  Solving for Ux, Initial residual = 0.00628349, Final residual = 9.85169e-06, No Iterations 8
smoothSolver:  Solving for Uy, Initial residual = 0.365344, Final residual = 3.99237e-06, No Iterations 10
GAMG:  Solving for p, Initial residual = 0.000601595, Final residual = 5.03259e-05, No Iterations 2
time step continuity errors : sum local = 6.30265e-07, global = 9.62416e-09, cumulative = -1.3214e-06
GAMG:  Solving for p, Initial residual = 0.000229146, Final residual = 2.11855e-05, No Iterations 4
time step continuity errors : sum local = 2.65215e-07, global = -2.59151e-08, cumulative = -1.34732e-06
GAMG:  Solving for p, Initial residual = 5.26865e-05, Final residual = 3.64566e-06, No Iterations 4
time step continuity errors : sum local = 4.56472e-08, global = -3.65996e-09, cumulative = -1.35098e-06
GAMG:  Solving for p, Initial residual = 2.35771e-05, Final residual = 1.52191e-06, No Iterations 4
time step continuity errors : sum local = 1.9057e-08, global = 2.05776e-09, cumulative = -1.34892e-06
GAMG:  Solving for p, Initial residual = 1.52014e-05, Final residual = 6.96536e-07, No Iterations 5
time step continuity errors : sum local = 8.72211e-09, global = 5.41302e-10, cumulative = -1.34838e-06
66







ExecutionTime = 0.03 s  ClockTime = 0 s

Time = 0.07

Courant Number mean: 0.0721818 max: 0.106421
smoothSolver:  Solving for Ux, Initial residual = 0.00496046, Final residual = 7.93181e-06, No Iterations 8
smoothSolver:  Solving for Uy, Initial residual = 0.126948, Final residual = 4.0761e-06, No Iterations 9
GAMG:  Solving for p, Initial residual = 0.000408505, Final residual = 2.55942e-05, No Iterations 4
time step continuity errors : sum local = 3.20399e-07, global = 2.13265e-08, cumulative = -1.32705e-06
GAMG:  Solving for p, Initial residual = 0.000184316, Final residual = 1.36667e-05, No Iterations 5
time step continuity errors : sum local = 1.71039e-07, global = -1.60943e-08, cumulative = -1.34315e-06
GAMG:  Solving for p, Initial residual = 4.23373e-05, Final residual = 3.72863e-06, No Iterations 4
time step continuity errors : sum local = 4.66711e-08, global = -4.32477e-09, cumulative = -1.34747e-06
GAMG:  Solving for p, Initial residual = 1.3008e-05, Final residual = 1.04242e-06, No Iterations 2
time step continuity errors : sum local = 1.30486e-08, global = 1.20347e-09, cumulative = -1.34627e-06
GAMG:  Solving for p, Initial residual = 8.42429e-06, Final residual = 6.7568e-07, No Iterations 4
time step continuity errors : sum local = 8.45802e-09, global = 5.38121e-10, cumulative = -1.34573e-06
77







ExecutionTime = 0.03 s  ClockTime = 0 s

Time = 0.08

Courant Number mean: 0.071371 max: 0.105231
smoothSolver:  Solving for Ux, Initial residual = 0.00398881, Final residual = 6.42938e-06, No Iterations 8
smoothSolver:  Solving for Uy, Initial residual = 0.0434504, Final residual = 3.6271e-06, No Iterations 8
GAMG:  Solving for p, Initial residual = 0.000301567, Final residual = 2.89579e-05, No Iterations 4
time step continuity errors : sum local = 3.6241e-07, global = 2.99208e-08, cumulative = -1.31581e-06
GAMG:  Solving for p, Initial residual = 0.000158582, Final residual = 1.26857e-05, No Iterations 5
time step continuity errors : sum local = 1.5873e-07, global = -1.46778e-08, cumulative = -1.33049e-06
GAMG:  Solving for p, Initial residual = 3.71821e-05, Final residual = 2.35171e-06, No Iterations 5
time step continuity errors : sum local = 2.94296e-08, global = -2.69097e-09, cumulative = -1.33318e-06
GAMG:  Solving for p, Initial residual = 1.02944e-05, Final residual = 8.15275e-07, No Iterations 2
time step continuity errors : sum local = 1.02028e-08, global = 7.59e-10, cumulative = -1.33242e-06
GAMG:  Solving for p, Initial residual = 5.09201e-06, Final residual = 6.57555e-07, No Iterations 3
time step continuity errors : sum local = 8.22914e-09, global = 5.43987e-10, cumulative = -1.33187e-06
88







ExecutionTime = 0.04 s  ClockTime = 0 s

Time = 0.09

Courant Number mean: 0.0707199 max: 0.104242
smoothSolver:  Solving for Ux, Initial residual = 0.0032288, Final residual = 5.22205e-06, No Iterations 8
smoothSolver:  Solving for Uy, Initial residual = 0.0223122, Final residual = 8.95891e-06, No Iterations 6
GAMG:  Solving for p, Initial residual = 0.000238942, Final residual = 1.55921e-05, No Iterations 5
time step continuity errors : sum local = 1.95098e-07, global = 1.67201e-08, cumulative = -1.31515e-06
GAMG:  Solving for p, Initial residual = 0.000129753, Final residual = 1.19042e-05, No Iterations 5
time step continuity errors : sum local = 1.4893e-07, global = -1.36051e-08, cumulative = -1.32876e-06
GAMG:  Solving for p, Initial residual = 3.15783e-05, Final residual = 2.03398e-06, No Iterations 5
time step continuity errors : sum local = 2.54492e-08, global = -2.31941e-09, cumulative = -1.33108e-06
GAMG:  Solving for p, Initial residual = 8.6255e-06, Final residual = 8.52015e-07, No Iterations 2
time step continuity errors : sum local = 1.06607e-08, global = 5.51749e-10, cumulative = -1.33053e-06
GAMG:  Solving for p, Initial residual = 3.86717e-06, Final residual = 8.26377e-07, No Iterations 2
time step continuity errors : sum local = 1.03401e-08, global = 6.93597e-10, cumulative = -1.32983e-06
99







ExecutionTime = 0.04 s  ClockTime = 0 s

Time = 0.1

Courant Number mean: 0.0701953 max: 0.103432
smoothSolver:  Solving for Ux, Initial residual = 0.00261866, Final residual = 9.3498e-06, No Iterations 7
smoothSolver:  Solving for Uy, Initial residual = 0.0220762, Final residual = 4.23611e-06, No Iterations 7
GAMG:  Solving for p, Initial residual = 0.000193646, Final residual = 1.39231e-05, No Iterations 5
time step continuity errors : sum local = 1.7419e-07, global = 1.52034e-08, cumulative = -1.31463e-06
GAMG:  Solving for p, Initial residual = 0.000109911, Final residual = 1.03975e-05, No Iterations 5
time step continuity errors : sum local = 1.30066e-07, global = -1.16209e-08, cumulative = -1.32625e-06
GAMG:  Solving for p, Initial residual = 2.70254e-05, Final residual = 1.86537e-06, No Iterations 5
time step continuity errors : sum local = 2.33365e-08, global = -1.97227e-09, cumulative = -1.32822e-06
GAMG:  Solving for p, Initial residual = 7.5618e-06, Final residual = 6.00479e-07, No Iterations 2
time step continuity errors : sum local = 7.5124e-09, global = 3.82829e-10, cumulative = -1.32784e-06
GAMG:  Solving for p, Initial residual = 3.09813e-06, Final residual = 9.7681e-07, No Iterations 1
time step continuity errors : sum local = 1.22207e-08, global = 8.22873e-10, cumulative = -1.32702e-06
1010







ExecutionTime = 0.05 s  ClockTime = 0 s

Time = 0.11

Courant Number mean: 0.0697723 max: 0.102773
smoothSolver:  Solving for Ux, Initial residual = 0.00212447, Final residual = 7.59066e-06, No Iterations 7
smoothSolver:  Solving for Uy, Initial residual = 0.0259064, Final residual = 6.27118e-06, No Iterations 7
GAMG:  Solving for p, Initial residual = 0.0001542, Final residual = 1.16139e-05, No Iterations 5
time step continuity errors : sum local = 1.45284e-07, global = 1.2788e-08, cumulative = -1.31423e-06
GAMG:  Solving for p, Initial residual = 8.95651e-05, Final residual = 8.53443e-06, No Iterations 5
time step continuity errors : sum local = 1.06751e-07, global = -9.53019e-09, cumulative = -1.32376e-06
GAMG:  Solving for p, Initial residual = 2.20609e-05, Final residual = 1.55019e-06, No Iterations 5
time step continuity errors : sum local = 1.93916e-08, global = -1.63939e-09, cumulative = -1.3254e-06
GAMG:  Solving for p, Initial residual = 6.18589e-06, Final residual = 9.04653e-07, No Iterations 1
time step continuity errors : sum local = 1.13166e-08, global = 9.03629e-10, cumulative = -1.32449e-06
GAMG:  Solving for p, Initial residual = 2.67869e-06, Final residual = 8.99451e-07, No Iterations 1
time step continuity errors : sum local = 1.12516e-08, global = 6.91976e-10, cumulative = -1.3238e-06
1111







ExecutionTime = 0.05 s  ClockTime = 0 s

Time = 0.12

Courant Number mean: 0.0694309 max: 0.10224
smoothSolver:  Solving for Ux, Initial residual = 0.0017227, Final residual = 6.15748e-06, No Iterations 7
smoothSolver:  Solving for Uy, Initial residual = 0.0278122, Final residual = 7.41363e-06, No Iterations 7
GAMG:  Solving for p, Initial residual = 0.0001232, Final residual = 9.22089e-06, No Iterations 5
time step continuity errors : sum local = 1.15338e-07, global = 1.05165e-08, cumulative = -1.31329e-06
GAMG:  Solving for p, Initial residual = 7.22172e-05, Final residual = 6.90944e-06, No Iterations 5
time step continuity errors : sum local = 8.64191e-08, global = -7.82503e-09, cumulative = -1.32111e-06
GAMG:  Solving for p, Initial residual = 1.78176e-05, Final residual = 1.25978e-06, No Iterations 5
time step continuity errors : sum local = 1.57575e-08, global = -1.33473e-09, cumulative = -1.32245e-06
GAMG:  Solving for p, Initial residual = 5.02675e-06, Final residual = 7.79292e-07, No Iterations 1
time step continuity errors : sum local = 9.74763e-09, global = 7.14913e-10, cumulative = -1.32173e-06
GAMG:  Solving for p, Initial residual = 2.18203e-06, Final residual = 7.59535e-07, No Iterations 1
time step continuity errors : sum local = 9.50056e-09, global = 5.33575e-10, cumulative = -1.3212e-06
12



ExecutionTime = 0.0612 s  ClockTime = 0 s

Time = 0.13





Courant Number mean: 0.0691552 max: 0.101809
smoothSolver:  Solving for Ux, Initial residual = 0.00139601, Final residual = 4.99094e-06, No Iterations 7
smoothSolver:  Solving for Uy, Initial residual = 0.0286662, Final residual = 7.96731e-06, No Iterations 7
GAMG:  Solving for p, Initial residual = 9.86491e-05, Final residual = 7.79447e-06, No Iterations 5
time step continuity errors : sum local = 9.74895e-08, global = 8.48533e-09, cumulative = -1.31271e-06
GAMG:  Solving for p, Initial residual = 5.88525e-05, Final residual = 5.61374e-06, No Iterations 5
time step continuity errors : sum local = 7.02096e-08, global = -6.2769e-09, cumulative = -1.31899e-06
GAMG:  Solving for p, Initial residual = 1.45136e-05, Final residual = 1.02824e-06, No Iterations 5
time step continuity errors : sum local = 1.28606e-08, global = -1.08769e-09, cumulative = -1.32008e-06
GAMG:  Solving for p, Initial residual = 4.09049e-06, Final residual = 5.98373e-07, No Iterations 1
time step continuity errors : sum local = 7.48413e-09, global = 5.53629e-10, cumulative = -1.31952e-06
GAMG:  Solving for p, Initial residual = 1.7467e-06, Final residual = 5.76859e-07, No Iterations 1
time step continuity errors : sum local = 7.21509e-09, global = 4.07199e-10, cumulative = -1.31912e-06
13



ExecutionTime = 130.06 s  ClockTime = 0 s

Time = 0.14





Courant Number mean: 0.0689327 max: 0.101461
smoothSolver:  Solving for Ux, Initial residual = 0.00113057, Final residual = 8.91622e-06, No Iterations 6
smoothSolver:  Solving for Uy, Initial residual = 0.0290596, Final residual = 8.23226e-06, No Iterations 7
GAMG:  Solving for p, Initial residual = 8.19557e-05, Final residual = 6.58184e-06, No Iterations 5
time step continuity errors : sum local = 8.23179e-08, global = 7.30391e-09, cumulative = -1.31181e-06
GAMG:  Solving for p, Initial residual = 5.02304e-05, Final residual = 4.61369e-06, No Iterations 5
time step continuity errors : sum local = 5.76997e-08, global = -5.3664e-09, cumulative = -1.31718e-06
GAMG:  Solving for p, Initial residual = 1.20782e-05, Final residual = 8.54182e-07, No Iterations 5
time step continuity errors : sum local = 1.0683e-08, global = -9.85984e-10, cumulative = -1.31816e-06
GAMG:  Solving for p, Initial residual = 3.56525e-06, Final residual = 4.34528e-07, No Iterations 1
time step continuity errors : sum local = 5.43456e-09, global = 4.24158e-10, cumulative = -1.31774e-06
GAMG:  Solving for p, Initial residual = 1.47251e-06, Final residual = 3.7975e-07, No Iterations 1
time step continuity errors : sum local = 4.74947e-09, global = 2.86254e-10, cumulative = -1.31745e-06
14



ExecutionTime = 140.06 s  ClockTime = 0 s

Time = 0.15





Courant Number mean: 0.0687533 max: 0.10118
smoothSolver:  Solving for Ux, Initial residual = 0.000915422, Final residual = 7.21998e-06, No Iterations 6
smoothSolver:  Solving for Uy, Initial residual = 0.0292235, Final residual = 8.30228e-06, No Iterations 7
GAMG:  Solving for p, Initial residual = 6.53511e-05, Final residual = 5.27179e-06, No Iterations 5
time step continuity errors : sum local = 6.59305e-08, global = 5.86555e-09, cumulative = -1.31159e-06
GAMG:  Solving for p, Initial residual = 4.025e-05, Final residual = 3.69489e-06, No Iterations 5
time step continuity errors : sum local = 4.62075e-08, global = -4.29895e-09, cumulative = -1.31589e-06
GAMG:  Solving for p, Initial residual = 9.65614e-06, Final residual = 6.84404e-07, No Iterations 5
time step continuity errors : sum local = 8.55927e-09, global = -7.90338e-10, cumulative = -1.31668e-06
GAMG:  Solving for p, Initial residual = 2.8493e-06, Final residual = 3.50875e-07, No Iterations 1
time step continuity errors : sum local = 4.38813e-09, global = 3.36409e-10, cumulative = -1.31634e-06
GAMG:  Solving for p, Initial residual = 1.18109e-06, Final residual = 3.059e-07, No Iterations 1
time step continuity errors : sum local = 3.82567e-09, global = 2.25956e-10, cumulative = -1.31612e-06
15



ExecutionTime = 150.07 s  ClockTime = 0 s

Time = 0.16





Courant Number mean: 0.0686084 max: 0.100953
smoothSolver:  Solving for Ux, Initial residual = 0.000740841, Final residual = 5.84343e-06, No Iterations 6
smoothSolver:  Solving for Uy, Initial residual = 0.0291698, Final residual = 8.32217e-06, No Iterations 7
GAMG:  Solving for p, Initial residual = 5.25851e-05, Final residual = 4.25797e-06, No Iterations 5
time step continuity errors : sum local = 5.32494e-08, global = 4.74092e-09, cumulative = -1.31137e-06
GAMG:  Solving for p, Initial residual = 3.24658e-05, Final residual = 2.98105e-06, No Iterations 5
time step continuity errors : sum local = 3.72792e-08, global = -3.46789e-09, cumulative = -1.31484e-06
GAMG:  Solving for p, Initial residual = 7.78793e-06, Final residual = 9.6262e-07, No Iterations 4
time step continuity errors : sum local = 1.20383e-08, global = -1.11968e-09, cumulative = -1.31596e-06
GAMG:  Solving for p, Initial residual = 2.42124e-06, Final residual = 4.67183e-07, No Iterations 1
time step continuity errors : sum local = 5.84251e-09, global = 7.40227e-10, cumulative = -1.31522e-06
GAMG:  Solving for p, Initial residual = 9.46966e-07, Final residual = 9.46966e-07, No Iterations 0
time step continuity errors : sum local = 1.18426e-08, global = -1.04467e-09, cumulative = -1.31627e-06
16



ExecutionTime = 160.07 s  ClockTime = 0 s

Time = 0.17





Courant Number mean: 0.0684913 max: 0.100769
smoothSolver:  Solving for Ux, Initial residual = 0.000599302, Final residual = 4.72746e-06, No Iterations 6
smoothSolver:  Solving for Uy, Initial residual = 0.028268, Final residual = 7.51451e-06, No Iterations 7
GAMG:  Solving for p, Initial residual = 4.16337e-05, Final residual = 3.36908e-06, No Iterations 5
time step continuity errors : sum local = 4.2132e-08, global = 3.80543e-09, cumulative = -1.31246e-06
GAMG:  Solving for p, Initial residual = 2.60071e-05, Final residual = 2.42096e-06, No Iterations 5
time step continuity errors : sum local = 3.02745e-08, global = -2.7862e-09, cumulative = -1.31525e-06
GAMG:  Solving for p, Initial residual = 6.03779e-06, Final residual = 7.72628e-07, No Iterations 4
time step continuity errors : sum local = 9.66203e-09, global = -8.97416e-10, cumulative = -1.31614e-06
GAMG:  Solving for p, Initial residual = 1.84026e-06, Final residual = 3.73236e-07, No Iterations 1
time step continuity errors : sum local = 4.6675e-09, global = 6.02925e-10, cumulative = -1.31554e-06
GAMG:  Solving for p, Initial residual = 7.11467e-07, Final residual = 7.11467e-07, No Iterations 0
time step continuity errors : sum local = 8.89726e-09, global = -7.78904e-10, cumulative = -1.31632e-06
1717







ExecutionTime = 0.08 s  ClockTime = 0 s

Time = 0.18

Courant Number mean: 0.0683968 max: 0.100621
smoothSolver:  Solving for Ux, Initial residual = 0.000484664, Final residual = 8.4385e-06, No Iterations 5
smoothSolver:  Solving for Uy, Initial residual = 0.0285545, Final residual = 7.715e-06, No Iterations 7
GAMG:  Solving for p, Initial residual = 3.67398e-05, Final residual = 3.03312e-06, No Iterations 5
time step continuity errors : sum local = 3.79297e-08, global = 3.32679e-09, cumulative = -1.31299e-06
GAMG:  Solving for p, Initial residual = 2.34324e-05, Final residual = 2.13926e-06, No Iterations 5
time step continuity errors : sum local = 2.67513e-08, global = -2.47169e-09, cumulative = -1.31547e-06
GAMG:  Solving for p, Initial residual = 5.51415e-06, Final residual = 6.94715e-07, No Iterations 4
time step continuity errors : sum local = 8.68751e-09, global = -8.02544e-10, cumulative = -1.31627e-06
GAMG:  Solving for p, Initial residual = 1.77865e-06, Final residual = 3.427e-07, No Iterations 1
time step continuity errors : sum local = 4.28553e-09, global = 3.65774e-10, cumulative = -1.3159e-06
GAMG:  Solving for p, Initial residual = 7.10333e-07, Final residual = 7.10333e-07, No Iterations 0
time step continuity errors : sum local = 8.88287e-09, global = -1.29723e-09, cumulative = -1.3172e-06
1818







ExecutionTime = 0.08 s  ClockTime = 0 s

Time = 0.19

Courant Number mean: 0.0683207 max: 0.100502
smoothSolver:  Solving for Ux, Initial residual = 0.000392158, Final residual = 6.82769e-06, No Iterations 5
smoothSolver:  Solving for Uy, Initial residual = 0.0285901, Final residual = 7.6231e-06, No Iterations 7
GAMG:  Solving for p, Initial residual = 2.89099e-05, Final residual = 2.33931e-06, No Iterations 5
time step continuity errors : sum local = 2.9253e-08, global = 2.64868e-09, cumulative = -1.31455e-06
GAMG:  Solving for p, Initial residual = 1.84557e-05, Final residual = 1.69823e-06, No Iterations 5
time step continuity errors : sum local = 2.12359e-08, global = -1.95614e-09, cumulative = -1.31651e-06
GAMG:  Solving for p, Initial residual = 4.31845e-06, Final residual = 9.54211e-07, No Iterations 3
time step continuity errors : sum local = 1.19323e-08, global = -1.03351e-09, cumulative = -1.31754e-06
GAMG:  Solving for p, Initial residual = 1.53565e-06, Final residual = 5.35219e-07, No Iterations 1
time step continuity errors : sum local = 6.69289e-09, global = -5.14529e-10, cumulative = -1.31806e-06
GAMG:  Solving for p, Initial residual = 5.78982e-07, Final residual = 5.78982e-07, No Iterations 0
time step continuity errors : sum local = 7.24017e-09, global = -2.03787e-09, cumulative = -1.32009e-06
1919







ExecutionTime = 0.08 s  ClockTime = 0 s

Time = 0.2

Courant Number mean: 0.0682592 max: 0.100406
smoothSolver:  Solving for Ux, Initial residual = 0.000317218, Final residual = 5.52294e-06, No Iterations 5
smoothSolver:  Solving for Uy, Initial residual = 0.0283671, Final residual = 7.55437e-06, No Iterations 7
GAMG:  Solving for p, Initial residual = 2.32529e-05, Final residual = 1.89012e-06, No Iterations 5
time step continuity errors : sum local = 2.36356e-08, global = 2.08565e-09, cumulative = -1.31801e-06
GAMG:  Solving for p, Initial residual = 1.49135e-05, Final residual = 1.34778e-06, No Iterations 5
time step continuity errors : sum local = 1.68534e-08, global = -1.56193e-09, cumulative = -1.31957e-06
GAMG:  Solving for p, Initial residual = 3.48133e-06, Final residual = 7.59045e-07, No Iterations 3
time step continuity errors : sum local = 9.49167e-09, global = -8.22344e-10, cumulative = -1.32039e-06
GAMG:  Solving for p, Initial residual = 1.24512e-06, Final residual = 4.17544e-07, No Iterations 1
time step continuity errors : sum local = 5.22129e-09, global = -4.17051e-10, cumulative = -1.32081e-06
GAMG:  Solving for p, Initial residual = 4.71381e-07, Final residual = 4.71381e-07, No Iterations 0
time step continuity errors : sum local = 5.89452e-09, global = -1.66205e-09, cumulative = -1.32247e-06
2020







ExecutionTime = 0.09 s  ClockTime = 0 s

Time = 0.21

Courant Number mean: 0.0682094 max: 0.100328
smoothSolver:  Solving for Ux, Initial residual = 0.000256544, Final residual = 9.86596e-06, No Iterations 4
smoothSolver:  Solving for Uy, Initial residual = 0.0283093, Final residual = 7.53336e-06, No Iterations 7
GAMG:  Solving for p, Initial residual = 2.19877e-05, Final residual = 1.777e-06, No Iterations 5
time step continuity errors : sum local = 2.22207e-08, global = 1.95138e-09, cumulative = -1.32052e-06
GAMG:  Solving for p, Initial residual = 1.44381e-05, Final residual = 1.27403e-06, No Iterations 5
time step continuity errors : sum local = 1.59311e-08, global = -1.47436e-09, cumulative = -1.32199e-06
GAMG:  Solving for p, Initial residual = 3.40235e-06, Final residual = 7.28341e-07, No Iterations 3
time step continuity errors : sum local = 9.10761e-09, global = -7.90591e-10, cumulative = -1.32278e-06
GAMG:  Solving for p, Initial residual = 1.28541e-06, Final residual = 4.27136e-07, No Iterations 1
time step continuity errors : sum local = 5.34118e-09, global = -5.08422e-10, cumulative = -1.32329e-06
GAMG:  Solving for p, Initial residual = 5.38967e-07, Final residual = 5.38967e-07, No Iterations 0
time step continuity errors : sum local = 6.73959e-09, global = -2.12273e-09, cumulative = -1.32542e-06
2121







ExecutionTime = 0.09 s  ClockTime = 0 s

Time = 0.22

Courant Number mean: 0.0681695 max: 0.100265
smoothSolver:  Solving for Ux, Initial residual = 0.000207808, Final residual = 7.99063e-06, No Iterations 4
smoothSolver:  Solving for Uy, Initial residual = 0.0284713, Final residual = 7.37025e-06, No Iterations 7
GAMG:  Solving for p, Initial residual = 1.69834e-05, Final residual = 1.36742e-06, No Iterations 5
time step continuity errors : sum local = 1.70989e-08, global = 1.50584e-09, cumulative = -1.32391e-06
GAMG:  Solving for p, Initial residual = 1.12357e-05, Final residual = 9.88107e-07, No Iterations 5
time step continuity errors : sum local = 1.23557e-08, global = -1.14436e-09, cumulative = -1.32505e-06
GAMG:  Solving for p, Initial residual = 2.61879e-06, Final residual = 9.58364e-07, No Iterations 2
time step continuity errors : sum local = 1.19839e-08, global = -1.4194e-09, cumulative = -1.32647e-06
GAMG:  Solving for p, Initial residual = 1.25442e-06, Final residual = 6.68954e-07, No Iterations 1
time step continuity errors : sum local = 8.36494e-09, global = -6.47929e-10, cumulative = -1.32712e-06
GAMG:  Solving for p, Initial residual = 6.99304e-07, Final residual = 6.99304e-07, No Iterations 0
time step continuity errors : sum local = 8.74447e-09, global = -1.50776e-09, cumulative = -1.32863e-06
2222







ExecutionTime = 0.1 s  ClockTime = 0 s

Time = 0.23

Courant Number mean: 0.0681372 max: 0.100215
smoothSolver:  Solving for Ux, Initial residual = 0.000168283, Final residual = 6.47051e-06, No Iterations 4
smoothSolver:  Solving for Uy, Initial residual = 0.0281197, Final residual = 7.31945e-06, No Iterations 7
GAMG:  Solving for p, Initial residual = 1.37237e-05, Final residual = 1.09546e-06, No Iterations 5
time step continuity errors : sum local = 1.36981e-08, global = 1.19376e-09, cumulative = -1.32744e-06
GAMG:  Solving for p, Initial residual = 9.09579e-06, Final residual = 8.01903e-07, No Iterations 5
time step continuity errors : sum local = 1.00273e-08, global = -9.24829e-10, cumulative = -1.32836e-06
GAMG:  Solving for p, Initial residual = 2.11568e-06, Final residual = 7.69018e-07, No Iterations 2
time step continuity errors : sum local = 9.61611e-09, global = -1.15247e-09, cumulative = -1.32951e-06
GAMG:  Solving for p, Initial residual = 1.00048e-06, Final residual = 5.2785e-07, No Iterations 1
time step continuity errors : sum local = 6.60046e-09, global = -5.1522e-10, cumulative = -1.33003e-06
GAMG:  Solving for p, Initial residual = 5.50409e-07, Final residual = 5.50409e-07, No Iterations 0
time step continuity errors : sum local = 6.88255e-09, global = -1.21662e-09, cumulative = -1.33124e-06
2323







ExecutionTime = 0.1 s  ClockTime = 0 s

Time = 0.24

Courant Number mean: 0.068111 max: 0.100174
smoothSolver:  Solving for Ux, Initial residual = 0.000136249, Final residual = 5.23874e-06, No Iterations 4
smoothSolver:  Solving for Uy, Initial residual = 0.0279522, Final residual = 7.24412e-06, No Iterations 7
GAMG:  Solving for p, Initial residual = 1.1112e-05, Final residual = 8.96388e-07, No Iterations 5
time step continuity errors : sum local = 1.12087e-08, global = 9.80456e-10, cumulative = -1.33026e-06
GAMG:  Solving for p, Initial residual = 7.36857e-06, Final residual = 6.51444e-07, No Iterations 5
time step continuity errors : sum local = 8.14583e-09, global = -7.51643e-10, cumulative = -1.33102e-06
GAMG:  Solving for p, Initial residual = 1.71219e-06, Final residual = 6.28646e-07, No Iterations 2
time step continuity errors : sum local = 7.8608e-09, global = -9.38585e-10, cumulative = -1.33195e-06
GAMG:  Solving for p, Initial residual = 8.18655e-07, Final residual = 8.18655e-07, No Iterations 0
time step continuity errors : sum local = 1.02367e-08, global = -3.44983e-09, cumulative = -1.3354e-06
GAMG:  Solving for p, Initial residual = 1.0892e-06, Final residual = 5.25269e-07, No Iterations 1
time step continuity errors : sum local = 6.56815e-09, global = -4.35586e-10, cumulative = -1.33584e-06
2424







ExecutionTime = 0.1 s  ClockTime = 0 s

Time = 0.25

Courant Number mean: 0.0680899 max: 0.100141
smoothSolver:  Solving for Ux, Initial residual = 0.000110315, Final residual = 9.37503e-06, No Iterations 3
smoothSolver:  Solving for Uy, Initial residual = 0.0288955, Final residual = 8.24733e-06, No Iterations 7
GAMG:  Solving for p, Initial residual = 1.1784e-05, Final residual = 9.13806e-07, No Iterations 5
time step continuity errors : sum local = 1.14265e-08, global = 1.00396e-09, cumulative = -1.33484e-06
GAMG:  Solving for p, Initial residual = 7.86592e-06, Final residual = 6.87783e-07, No Iterations 5
time step continuity errors : sum local = 8.60017e-09, global = -7.68095e-10, cumulative = -1.3356e-06
GAMG:  Solving for p, Initial residual = 1.97618e-06, Final residual = 6.68315e-07, No Iterations 2
time step continuity errors : sum local = 8.35678e-09, global = -1.01115e-09, cumulative = -1.33662e-06
GAMG:  Solving for p, Initial residual = 9.38181e-07, Final residual = 9.38181e-07, No Iterations 0
time step continuity errors : sum local = 1.17313e-08, global = -4.10248e-09, cumulative = -1.34072e-06
GAMG:  Solving for p, Initial residual = 1.36465e-06, Final residual = 5.97545e-07, No Iterations 1
time step continuity errors : sum local = 7.47187e-09, global = -4.9438e-10, cumulative = -1.34121e-06
2525







ExecutionTime = 0.11 s  ClockTime = 0 s

Time = 0.26

Courant Number mean: 0.068073 max: 0.100114
smoothSolver:  Solving for Ux, Initial residual = 8.96514e-05, Final residual = 7.61601e-06, No Iterations 3
smoothSolver:  Solving for Uy, Initial residual = 0.0292669, Final residual = 8.1236e-06, No Iterations 7
GAMG:  Solving for p, Initial residual = 9.12276e-06, Final residual = 7.00264e-07, No Iterations 5
time step continuity errors : sum local = 8.75625e-09, global = 7.7028e-10, cumulative = -1.34044e-06
GAMG:  Solving for p, Initial residual = 6.13792e-06, Final residual = 9.18776e-07, No Iterations 4
time step continuity errors : sum local = 1.14885e-08, global = -1.04206e-09, cumulative = -1.34148e-06
GAMG:  Solving for p, Initial residual = 1.7348e-06, Final residual = 6.98261e-07, No Iterations 2
time step continuity errors : sum local = 8.73121e-09, global = -1.09616e-09, cumulative = -1.34258e-06
GAMG:  Solving for p, Initial residual = 8.84268e-07, Final residual = 8.84268e-07, No Iterations 0
time step continuity errors : sum local = 1.10571e-08, global = -3.29555e-09, cumulative = -1.34588e-06
GAMG:  Solving for p, Initial residual = 1.13046e-06, Final residual = 5.09684e-07, No Iterations 1
time step continuity errors : sum local = 6.37321e-09, global = -4.25342e-10, cumulative = -1.3463e-06
2626







ExecutionTime = 0.11 s  ClockTime = 0 s

Time = 0.27

Courant Number mean: 0.0680592 max: 0.100093
smoothSolver:  Solving for Ux, Initial residual = 7.28179e-05, Final residual = 6.18541e-06, No Iterations 3
smoothSolver:  Solving for Uy, Initial residual = 0.0290695, Final residual = 8.0744e-06, No Iterations 7
GAMG:  Solving for p, Initial residual = 7.36613e-06, Final residual = 9.87154e-07, No Iterations 4
time step continuity errors : sum local = 1.23436e-08, global = 1.10178e-09, cumulative = -1.3452e-06
GAMG:  Solving for p, Initial residual = 4.97389e-06, Final residual = 6.82716e-07, No Iterations 4
time step continuity errors : sum local = 8.53678e-09, global = -7.80005e-10, cumulative = -1.34598e-06
GAMG:  Solving for p, Initial residual = 1.40984e-06, Final residual = 5.85808e-07, No Iterations 2
time step continuity errors : sum local = 7.32504e-09, global = -9.30074e-10, cumulative = -1.34691e-06
GAMG:  Solving for p, Initial residual = 7.53301e-07, Final residual = 7.53301e-07, No Iterations 0
time step continuity errors : sum local = 9.41942e-09, global = -2.85471e-09, cumulative = -1.34976e-06
GAMG:  Solving for p, Initial residual = 9.3866e-07, Final residual = 9.3866e-07, No Iterations 0
time step continuity errors : sum local = 1.17372e-08, global = -4.77583e-09, cumulative = -1.35454e-06
2727







ExecutionTime = 0.12 s  ClockTime = 0 s

Time = 0.28

Courant Number mean: 0.0680481 max: 0.100075
smoothSolver:  Solving for Ux, Initial residual = 5.91201e-05, Final residual = 5.02325e-06, No Iterations 3
smoothSolver:  Solving for Uy, Initial residual = 0.0262174, Final residual = 5.66491e-06, No Iterations 7
GAMG:  Solving for p, Initial residual = 5.02785e-06, Final residual = 6.07521e-07, No Iterations 4
time step continuity errors : sum local = 7.59654e-09, global = 6.76596e-10, cumulative = -1.35386e-06
GAMG:  Solving for p, Initial residual = 3.51901e-06, Final residual = 7.77202e-07, No Iterations 3
time step continuity errors : sum local = 9.71823e-09, global = -8.54876e-10, cumulative = -1.35472e-06
GAMG:  Solving for p, Initial residual = 1.17946e-06, Final residual = 9.18572e-07, No Iterations 1
time step continuity errors : sum local = 1.1486e-08, global = -8.97287e-10, cumulative = -1.35562e-06
GAMG:  Solving for p, Initial residual = 1.04711e-06, Final residual = 6.10151e-07, No Iterations 1
time step continuity errors : sum local = 7.62943e-09, global = -6.56746e-10, cumulative = -1.35627e-06
GAMG:  Solving for p, Initial residual = 5.8903e-07, Final residual = 5.8903e-07, No Iterations 0
time step continuity errors : sum local = 7.36533e-09, global = -8.96402e-10, cumulative = -1.35717e-06
2828







ExecutionTime = 0.12 s  ClockTime = 1 s

Time = 0.29

Courant Number mean: 0.068039 max: 0.100061
smoothSolver:  Solving for Ux, Initial residual = 4.80222e-05, Final residual = 9.02341e-06, No Iterations 2
smoothSolver:  Solving for Uy, Initial residual = 0.0279892, Final residual = 7.10082e-06, No Iterations 7
GAMG:  Solving for p, Initial residual = 6.27401e-06, Final residual = 7.90766e-07, No Iterations 4
time step continuity errors : sum local = 9.88783e-09, global = 8.68305e-10, cumulative = -1.3563e-06
GAMG:  Solving for p, Initial residual = 4.17935e-06, Final residual = 9.41867e-07, No Iterations 3
time step continuity errors : sum local = 1.17772e-08, global = -1.02416e-09, cumulative = -1.35732e-06
GAMG:  Solving for p, Initial residual = 1.54934e-06, Final residual = 6.72102e-07, No Iterations 2
time step continuity errors : sum local = 8.40404e-09, global = -1.11972e-09, cumulative = -1.35844e-06
GAMG:  Solving for p, Initial residual = 8.19427e-07, Final residual = 8.19427e-07, No Iterations 0
time step continuity errors : sum local = 1.02462e-08, global = -2.86257e-09, cumulative = -1.36131e-06
GAMG:  Solving for p, Initial residual = 9.98985e-07, Final residual = 9.98985e-07, No Iterations 0
time step continuity errors : sum local = 1.24914e-08, global = -4.81726e-09, cumulative = -1.36612e-06
2929







ExecutionTime = 0.12 s  ClockTime = 1 s

Time = 0.3

Courant Number mean: 0.0680319 max: 0.10005
smoothSolver:  Solving for Ux, Initial residual = 3.93143e-05, Final residual = 7.38375e-06, No Iterations 2
smoothSolver:  Solving for Uy, Initial residual = 0.0299631, Final residual = 6.1529e-06, No Iterations 7
GAMG:  Solving for p, Initial residual = 3.91067e-06, Final residual = 7.1067e-07, No Iterations 3
time step continuity errors : sum local = 8.8863e-09, global = 8.69026e-10, cumulative = -1.36525e-06
GAMG:  Solving for p, Initial residual = 2.76929e-06, Final residual = 8.29933e-07, No Iterations 2
time step continuity errors : sum local = 1.03776e-08, global = -1.04458e-09, cumulative = -1.3663e-06
GAMG:  Solving for p, Initial residual = 1.24048e-06, Final residual = 9.56174e-07, No Iterations 1
time step continuity errors : sum local = 1.19561e-08, global = -9.22876e-10, cumulative = -1.36722e-06
GAMG:  Solving for p, Initial residual = 1.09163e-06, Final residual = 6.48322e-07, No Iterations 1
time step continuity errors : sum local = 8.1067e-09, global = -7.58186e-10, cumulative = -1.36798e-06
GAMG:  Solving for p, Initial residual = 6.49625e-07, Final residual = 6.49625e-07, No Iterations 0
time step continuity errors : sum local = 8.12298e-09, global = -1.14815e-09, cumulative = -1.36913e-06
3030







ExecutionTime = 0.13 s  ClockTime = 1 s

Time = 0.31

Courant Number mean: 0.0680261 max: 0.100041
smoothSolver:  Solving for Ux, Initial residual = 3.21755e-05, Final residual = 6.0401e-06, No Iterations 2
smoothSolver:  Solving for Uy, Initial residual = 0.028552, Final residual = 6.64792e-06, No Iterations 7
GAMG:  Solving for p, Initial residual = 3.77258e-06, Final residual = 7.72519e-07, No Iterations 3
time step continuity errors : sum local = 9.65965e-09, global = 8.88554e-10, cumulative = -1.36824e-06
GAMG:  Solving for p, Initial residual = 2.51997e-06, Final residual = 8.0951e-07, No Iterations 2
time step continuity errors : sum local = 1.01222e-08, global = -1.01743e-09, cumulative = -1.36926e-06
GAMG:  Solving for p, Initial residual = 1.25244e-06, Final residual = 9.50488e-07, No Iterations 1
time step continuity errors : sum local = 1.1885e-08, global = -9.19124e-10, cumulative = -1.37018e-06
GAMG:  Solving for p, Initial residual = 1.1019e-06, Final residual = 6.46375e-07, No Iterations 1
time step continuity errors : sum local = 8.08233e-09, global = -6.86647e-10, cumulative = -1.37086e-06
GAMG:  Solving for p, Initial residual = 6.52906e-07, Final residual = 6.52906e-07, No Iterations 0
time step continuity errors : sum local = 8.164e-09, global = -9.2922e-10, cumulative = -1.37179e-06
3131







ExecutionTime = 0.13 s  ClockTime = 1 s

Time = 0.32

Courant Number mean: 0.0680213 max: 0.100033
smoothSolver:  Solving for Ux, Initial residual = 2.63137e-05, Final residual = 4.93978e-06, No Iterations 2
smoothSolver:  Solving for Uy, Initial residual = 0.0263519, Final residual = 5.6371e-06, No Iterations 7
GAMG:  Solving for p, Initial residual = 3.00198e-06, Final residual = 5.88855e-07, No Iterations 3
time step continuity errors : sum local = 7.36308e-09, global = 6.85517e-10, cumulative = -1.37111e-06
GAMG:  Solving for p, Initial residual = 2.02187e-06, Final residual = 6.43113e-07, No Iterations 2
time step continuity errors : sum local = 8.04152e-09, global = -8.0931e-10, cumulative = -1.37192e-06
GAMG:  Solving for p, Initial residual = 9.75422e-07, Final residual = 9.75422e-07, No Iterations 0
time step continuity errors : sum local = 1.21967e-08, global = -5.32041e-09, cumulative = -1.37724e-06
GAMG:  Solving for p, Initial residual = 1.24092e-06, Final residual = 6.13877e-07, No Iterations 2
time step continuity errors : sum local = 7.67596e-09, global = -1.04207e-09, cumulative = -1.37828e-06
GAMG:  Solving for p, Initial residual = 6.20858e-07, Final residual = 6.20858e-07, No Iterations 0
time step continuity errors : sum local = 7.76327e-09, global = 8.02449e-10, cumulative = -1.37748e-06
3232







ExecutionTime = 0.14 s  ClockTime = 1 s

Time = 0.33

Courant Number mean: 0.0680175 max: 0.100027
smoothSolver:  Solving for Ux, Initial residual = 2.15251e-05, Final residual = 8.95063e-06, No Iterations 1
smoothSolver:  Solving for Uy, Initial residual = 0.022274, Final residual = 4.49925e-06, No Iterations 7
GAMG:  Solving for p, Initial residual = 4.10242e-06, Final residual = 8.21355e-07, No Iterations 3
time step continuity errors : sum local = 1.02703e-08, global = 8.72814e-10, cumulative = -1.3766e-06
GAMG:  Solving for p, Initial residual = 2.55498e-06, Final residual = 7.04132e-07, No Iterations 2
time step continuity errors : sum local = 8.8045e-09, global = -1.2186e-09, cumulative = -1.37782e-06
GAMG:  Solving for p, Initial residual = 1.16666e-06, Final residual = 9.12612e-07, No Iterations 1
time step continuity errors : sum local = 1.14114e-08, global = -8.84498e-10, cumulative = -1.37871e-06
GAMG:  Solving for p, Initial residual = 1.09491e-06, Final residual = 6.55969e-07, No Iterations 1
time step continuity errors : sum local = 8.20228e-09, global = -6.9443e-10, cumulative = -1.3794e-06
GAMG:  Solving for p, Initial residual = 6.90316e-07, Final residual = 6.90316e-07, No Iterations 0
time step continuity errors : sum local = 8.63175e-09, global = -1.17575e-09, cumulative = -1.38058e-06
3333







ExecutionTime = 0.14 s  ClockTime = 1 s

Time = 0.34

Courant Number mean: 0.0680145 max: 0.100023
smoothSolver:  Solving for Ux, Initial residual = 1.79252e-05, Final residual = 7.4491e-06, No Iterations 1
smoothSolver:  Solving for Uy, Initial residual = 0.0397573, Final residual = 8.44031e-06, No Iterations 7
GAMG:  Solving for p, Initial residual = 2.00495e-06, Final residual = 9.14253e-07, No Iterations 1
time step continuity errors : sum local = 1.14319e-08, global = 1.00591e-09, cumulative = -1.37957e-06
GAMG:  Solving for p, Initial residual = 1.37823e-06, Final residual = 2.29541e-07, No Iterations 1
time step continuity errors : sum local = 2.87019e-09, global = -2.62966e-10, cumulative = -1.37983e-06
GAMG:  Solving for p, Initial residual = 5.40025e-07, Final residual = 5.40025e-07, No Iterations 0
time step continuity errors : sum local = 6.75251e-09, global = -4.05626e-09, cumulative = -1.38389e-06
GAMG:  Solving for p, Initial residual = 8.61315e-07, Final residual = 8.61315e-07, No Iterations 0
time step continuity errors : sum local = 1.07699e-08, global = -7.4781e-09, cumulative = -1.39137e-06
GAMG:  Solving for p, Initial residual = 1.18248e-06, Final residual = 9.06502e-07, No Iterations 1
time step continuity errors : sum local = 1.1335e-08, global = -8.50946e-10, cumulative = -1.39222e-06
3434







ExecutionTime = 0.15 s  ClockTime = 1 s

Time = 0.35

Courant Number mean: 0.068012 max: 0.100019
smoothSolver:  Solving for Ux, Initial residual = 1.49191e-05, Final residual = 6.19352e-06, No Iterations 1
smoothSolver:  Solving for Uy, Initial residual = 0.101737, Final residual = 3.84719e-06, No Iterations 9
GAMG:  Solving for p, Initial residual = 2.8456e-06, Final residual = 7.01379e-07, No Iterations 2
time step continuity errors : sum local = 8.77008e-09, global = 9.04031e-10, cumulative = -1.39131e-06
GAMG:  Solving for p, Initial residual = 1.7621e-06, Final residual = 5.54515e-07, No Iterations 1
time step continuity errors : sum local = 6.93368e-09, global = -5.74213e-10, cumulative = -1.39189e-06
GAMG:  Solving for p, Initial residual = 8.72406e-07, Final residual = 8.72406e-07, No Iterations 0
time step continuity errors : sum local = 1.09086e-08, global = -4.81594e-09, cumulative = -1.39671e-06
GAMG:  Solving for p, Initial residual = 1.12962e-06, Final residual = 9.47438e-07, No Iterations 1
time step continuity errors : sum local = 1.18468e-08, global = -9.50046e-10, cumulative = -1.39766e-06
GAMG:  Solving for p, Initial residual = 1.00877e-06, Final residual = 4.55923e-07, No Iterations 1
time step continuity errors : sum local = 5.70088e-09, global = -3.93717e-10, cumulative = -1.39805e-06
3535







ExecutionTime = 0.15 s  ClockTime = 1 s

Time = 0.36

Courant Number mean: 0.06801 max: 0.100016
smoothSolver:  Solving for Ux, Initial residual = 1.23804e-05, Final residual = 5.14141e-06, No Iterations 1
smoothSolver:  Solving for Uy, Initial residual = 0.0671275, Final residual = 5.50684e-06, No Iterations 8
GAMG:  Solving for p, Initial residual = 1.89261e-06, Final residual = 6.39827e-07, No Iterations 2
time step continuity errors : sum local = 8.00042e-09, global = 7.49352e-10, cumulative = -1.3973e-06
GAMG:  Solving for p, Initial residual = 1.2895e-06, Final residual = 3.84276e-07, No Iterations 1
time step continuity errors : sum local = 4.805e-09, global = -3.99964e-10, cumulative = -1.3977e-06
GAMG:  Solving for p, Initial residual = 6.70864e-07, Final residual = 6.70864e-07, No Iterations 0
time step continuity errors : sum local = 8.38851e-09, global = -3.61384e-09, cumulative = -1.40131e-06
GAMG:  Solving for p, Initial residual = 8.9943e-07, Final residual = 8.9943e-07, No Iterations 0
time step continuity errors : sum local = 1.12465e-08, global = -6.42071e-09, cumulative = -1.40773e-06
GAMG:  Solving for p, Initial residual = 1.12598e-06, Final residual = 9.55867e-07, No Iterations 1
time step continuity errors : sum local = 1.19522e-08, global = -8.86327e-10, cumulative = -1.40862e-06
36



ExecutionTime = 360.15 s  ClockTime = 1 s

Time = 0.37





Courant Number mean: 0.0680083 max: 0.100013
smoothSolver:  Solving for Ux, Initial residual = 1.02983e-05, Final residual = 4.27426e-06, No Iterations 1
smoothSolver:  Solving for Uy, Initial residual = 0.127213, Final residual = 4.99534e-06, No Iterations 9
GAMG:  Solving for p, Initial residual = 2.19637e-06, Final residual = 7.67724e-07, No Iterations 1
time step continuity errors : sum local = 9.59965e-09, global = 8.51402e-10, cumulative = -1.40777e-06
GAMG:  Solving for p, Initial residual = 1.26996e-06, Final residual = 1.91158e-07, No Iterations 1
time step continuity errors : sum local = 2.39025e-09, global = -2.06572e-10, cumulative = -1.40798e-06
GAMG:  Solving for p, Initial residual = 4.51164e-07, Final residual = 4.51164e-07, No Iterations 0
time step continuity errors : sum local = 5.64138e-09, global = -3.3069e-09, cumulative = -1.41128e-06
GAMG:  Solving for p, Initial residual = 7.03689e-07, Final residual = 7.03689e-07, No Iterations 0
time step continuity errors : sum local = 8.79896e-09, global = -5.95358e-09, cumulative = -1.41724e-06
GAMG:  Solving for p, Initial residual = 9.21362e-07, Final residual = 9.21362e-07, No Iterations 0
time step continuity errors : sum local = 1.15208e-08, global = -8.20661e-09, cumulative = -1.42544e-06
37



ExecutionTime = 370.15 s  ClockTime = 1 s

Time = 0.38





Courant Number mean: 0.0680069 max: 0.100011
smoothSolver:  Solving for Ux, Initial residual = 8.52182e-06, Final residual = 8.52182e-06, No Iterations 0
smoothSolver:  Solving for Uy, Initial residual = 0.185639, Final residual = 6.94598e-06, No Iterations 9
GAMG:  Solving for p, Initial residual = 9.86482e-07, Final residual = 9.86482e-07, No Iterations 0
time step continuity errors : sum local = 1.2335e-08, global = -5.4738e-09, cumulative = -1.43092e-06
GAMG:  Solving for p, Initial residual = 9.93143e-07, Final residual = 9.93143e-07, No Iterations 0
time step continuity errors : sum local = 1.24183e-08, global = -4.48212e-09, cumulative = -1.4354e-06
GAMG:  Solving for p, Initial residual = 1.05105e-06, Final residual = 5.6833e-07, No Iterations 1
time step continuity errors : sum local = 7.10642e-09, global = -6.05349e-10, cumulative = -1.436e-06
GAMG:  Solving for p, Initial residual = 8.02982e-07, Final residual = 8.02982e-07, No Iterations 0
time step continuity errors : sum local = 1.00405e-08, global = 1.06113e-09, cumulative = -1.43494e-06
GAMG:  Solving for p, Initial residual = 1.06071e-06, Final residual = 1.34568e-07, No Iterations 1
time step continuity errors : sum local = 1.68264e-09, global = -3.46296e-11, cumulative = -1.43498e-06
38



ExecutionTime = 380.16 s  ClockTime = 1 s

Time = 0.39





Courant Number mean: 0.068006 max: 0.100009
smoothSolver:  Solving for Ux, Initial residual = 7.40795e-06, Final residual = 7.40795e-06, No Iterations 0
smoothSolver:  Solving for Uy, Initial residual = 0.0863151, Final residual = 5.63982e-06, No Iterations 8
GAMG:  Solving for p, Initial residual = 5.17636e-07, Final residual = 5.17636e-07, No Iterations 0
time step continuity errors : sum local = 6.47254e-09, global = 4.64808e-09, cumulative = -1.43033e-06
GAMG:  Solving for p, Initial residual = 7.35731e-07, Final residual = 7.35731e-07, No Iterations 0
time step continuity errors : sum local = 9.19961e-09, global = 7.19985e-09, cumulative = -1.42313e-06
GAMG:  Solving for p, Initial residual = 8.35701e-07, Final residual = 8.35701e-07, No Iterations 0
time step continuity errors : sum local = 1.04496e-08, global = 8.35758e-09, cumulative = -1.41477e-06
GAMG:  Solving for p, Initial residual = 8.63385e-07, Final residual = 8.63385e-07, No Iterations 0
time step continuity errors : sum local = 1.07958e-08, global = 8.62505e-09, cumulative = -1.40615e-06
GAMG:  Solving for p, Initial residual = 8.45304e-07, Final residual = 8.45304e-07, No Iterations 0
time step continuity errors : sum local = 1.05697e-08, global = 8.35524e-09, cumulative = -1.39779e-06
39



ExecutionTime = 390.16 s  ClockTime = 1 s

Time = 0.4





Courant Number mean: 0.0680052 max: 0.100008
smoothSolver:  Solving for Ux, Initial residual = 6.42739e-06, Final residual = 6.42739e-06, No Iterations 0
smoothSolver:  Solving for Uy, Initial residual = 0.0330745, Final residual = 8.66423e-06, No Iterations 7
GAMG:  Solving for p, Initial residual = 1.26173e-06, Final residual = 9.22301e-07, No Iterations 1
time step continuity errors : sum local = 1.15325e-08, global = 8.5342e-10, cumulative = -1.39694e-06
GAMG:  Solving for p, Initial residual = 1.05001e-06, Final residual = 2.98734e-07, No Iterations 1
time step continuity errors : sum local = 3.73538e-09, global = -7.30467e-11, cumulative = -1.39701e-06
GAMG:  Solving for p, Initial residual = 3.59328e-07, Final residual = 3.59328e-07, No Iterations 0
time step continuity errors : sum local = 4.49304e-09, global = -2.33237e-09, cumulative = -1.39934e-06
GAMG:  Solving for p, Initial residual = 5.14714e-07, Final residual = 5.14714e-07, No Iterations 0
time step continuity errors : sum local = 6.43599e-09, global = -4.52064e-09, cumulative = -1.40386e-06
GAMG:  Solving for p, Initial residual = 6.88416e-07, Final residual = 6.88416e-07, No Iterations 0
time step continuity errors : sum local = 8.60797e-09, global = -6.56254e-09, cumulative = -1.41043e-06
40



40



ExecutionTime = 0.17 s  ClockTime = 1 s

Time = 0.41

Courant Number mean: 0.0680045 max: 0.100007
smoothSolver:  Solving for Ux, Initial residual = 5.52979e-06, Final residual = 5.52979e-06, No Iterations 0
smoothSolver:  Solving for Uy, Initial residual = 0.476693, Final residual = 5.51858e-06, No Iterations 10
GAMG:  Solving for p, Initial residual = 1.00915e-06, Final residual = 6.23265e-07, No Iterations 1
time step continuity errors : sum local = 7.79333e-09, global = -6.19109e-10, cumulative = -1.41105e-06
GAMG:  Solving for p, Initial residual = 7.98017e-07, Final residual = 7.98017e-07, No Iterations 0
time step continuity errors : sum local = 9.97844e-09, global = 1.78078e-09, cumulative = -1.40927e-06
GAMG:  Solving for p, Initial residual = 9.7894e-07, Final residual = 9.7894e-07, No Iterations 0
time step continuity errors : sum local = 1.22407e-08, global = 2.989e-09, cumulative = -1.40628e-06
GAMG:  Solving for p, Initial residual = 1.09203e-06, Final residual = 1.90819e-07, No Iterations 1
time step continuity errors : sum local = 2.38601e-09, global = 7.5637e-11, cumulative = -1.4062e-06
GAMG:  Solving for p, Initial residual = 3.05017e-07, Final residual = 3.05017e-07, No Iterations 0
time step continuity errors : sum local = 3.81395e-09, global = -1.64195e-09, cumulative = -1.40784e-06
41



ExecutionTime = 410.17 s  ClockTime = 1 s

Time = 0.42





Courant Number mean: 0.0680039 max: 0.100006
smoothSolver:  Solving for Ux, Initial residual = 4.79946e-06, Final residual = 4.79946e-06, No Iterations 0
smoothSolver:  Solving for Uy, Initial residual = 0.382827, Final residual = 5.15524e-06, No Iterations 10
GAMG:  Solving for p, Initial residual = 4.779e-07, Final residual = 4.779e-07, No Iterations 0
time step continuity errors : sum local = 5.97567e-09, global = 1.49799e-10, cumulative = -1.40769e-06
GAMG:  Solving for p, Initial residual = 4.6772e-07, Final residual = 4.6772e-07, No Iterations 0
time step continuity errors : sum local = 5.84839e-09, global = 8.63181e-10, cumulative = -1.40683e-06
GAMG:  Solving for p, Initial residual = 4.81741e-07, Final residual = 4.81741e-07, No Iterations 0
time step continuity errors : sum local = 6.02371e-09, global = 9.05368e-10, cumulative = -1.40592e-06
GAMG:  Solving for p, Initial residual = 5.04305e-07, Final residual = 5.04305e-07, No Iterations 0
time step continuity errors : sum local = 6.30585e-09, global = 5.49601e-10, cumulative = -1.40537e-06
GAMG:  Solving for p, Initial residual = 5.43089e-07, Final residual = 5.43089e-07, No Iterations 0
time step continuity errors : sum local = 6.79081e-09, global = -2.13154e-11, cumulative = -1.4054e-06
42



ExecutionTime = 420.17 s  ClockTime = 1 s

Time = 0.43





Courant Number mean: 0.0680033 max: 0.100005
smoothSolver:  Solving for Ux, Initial residual = 4.15356e-06, Final residual = 4.15356e-06, No Iterations 0
smoothSolver:  Solving for Uy, Initial residual = 0.19128, Final residual = 7.92389e-06, No Iterations 9
GAMG:  Solving for p, Initial residual = 6.2705e-07, Final residual = 6.2705e-07, No Iterations 0
time step continuity errors : sum local = 7.84066e-09, global = 1.78016e-09, cumulative = -1.40362e-06
GAMG:  Solving for p, Initial residual = 6.34675e-07, Final residual = 6.34675e-07, No Iterations 0
time step continuity errors : sum local = 7.93599e-09, global = 2.59238e-09, cumulative = -1.40102e-06
GAMG:  Solving for p, Initial residual = 6.46497e-07, Final residual = 6.46497e-07, No Iterations 0
time step continuity errors : sum local = 8.08382e-09, global = 2.77685e-09, cumulative = -1.39825e-06
GAMG:  Solving for p, Initial residual = 6.52402e-07, Final residual = 6.52402e-07, No Iterations 0
time step continuity errors : sum local = 8.15766e-09, global = 2.57965e-09, cumulative = -1.39567e-06
GAMG:  Solving for p, Initial residual = 6.60534e-07, Final residual = 6.60534e-07, No Iterations 0
time step continuity errors : sum local = 8.25934e-09, global = 2.16903e-09, cumulative = -1.3935e-06
43



ExecutionTime = 430.17 s  ClockTime = 1 s

Time = 0.44





Courant Number mean: 0.0680029 max: 0.100004
smoothSolver:  Solving for Ux, Initial residual = 3.59488e-06, Final residual = 3.59488e-06, No Iterations 0
smoothSolver:  Solving for Uy, Initial residual = 0.0665753, Final residual = 8.47922e-06, No Iterations 8
GAMG:  Solving for p, Initial residual = 7.43653e-07, Final residual = 7.43653e-07, No Iterations 0
time step continuity errors : sum local = 9.29866e-09, global = 3.95186e-09, cumulative = -1.38955e-06
GAMG:  Solving for p, Initial residual = 7.80742e-07, Final residual = 7.80742e-07, No Iterations 0
time step continuity errors : sum local = 9.76242e-09, global = 4.82489e-09, cumulative = -1.38472e-06
GAMG:  Solving for p, Initial residual = 8.01864e-07, Final residual = 8.01864e-07, No Iterations 0
time step continuity errors : sum local = 1.00265e-08, global = 5.11283e-09, cumulative = -1.37961e-06
GAMG:  Solving for p, Initial residual = 7.94908e-07, Final residual = 7.94908e-07, No Iterations 0
time step continuity errors : sum local = 9.93955e-09, global = 5.03863e-09, cumulative = -1.37457e-06
GAMG:  Solving for p, Initial residual = 7.80523e-07, Final residual = 7.80523e-07, No Iterations 0
time step continuity errors : sum local = 9.75968e-09, global = 4.7558e-09, cumulative = -1.36981e-06
44



ExecutionTime = 440.18 s  ClockTime = 1 s

Time = 0.45





Courant Number mean: 0.0680025 max: 0.100004
smoothSolver:  Solving for Ux, Initial residual = 3.11194e-06, Final residual = 3.11194e-06, No Iterations 0
smoothSolver:  Solving for Uy, Initial residual = 0.0282257, Final residual = 3.66581e-06, No Iterations 8
GAMG:  Solving for p, Initial residual = 9.23778e-07, Final residual = 9.23778e-07, No Iterations 0
time step continuity errors : sum local = 1.15509e-08, global = 6.49466e-09, cumulative = -1.36332e-06
GAMG:  Solving for p, Initial residual = 9.94808e-07, Final residual = 9.94808e-07, No Iterations 0
time step continuity errors : sum local = 1.24391e-08, global = 7.39825e-09, cumulative = -1.35592e-06
GAMG:  Solving for p, Initial residual = 1.01863e-06, Final residual = 6.41857e-07, No Iterations 1
time step continuity errors : sum local = 8.0258e-09, global = 6.57133e-10, cumulative = -1.35526e-06
GAMG:  Solving for p, Initial residual = 7.68899e-07, Final residual = 7.68899e-07, No Iterations 0
time step continuity errors : sum local = 9.61433e-09, global = -3.22494e-09, cumulative = -1.35849e-06
GAMG:  Solving for p, Initial residual = 9.32238e-07, Final residual = 9.32238e-07, No Iterations 0
time step continuity errors : sum local = 1.16567e-08, global = -6.26884e-09, cumulative = -1.36476e-06
45



ExecutionTime = 450.18 s  ClockTime = 1 s

Time = 0.46





Courant Number mean: 0.0680022 max: 0.100003
smoothSolver:  Solving for Ux, Initial residual = 2.6549e-06, Final residual = 2.6549e-06, No Iterations 0
smoothSolver:  Solving for Uy, Initial residual = 0.391009, Final residual = 5.91031e-06, No Iterations 10
GAMG:  Solving for p, Initial residual = 1.49433e-06, Final residual = 5.44992e-07, No Iterations 1
time step continuity errors : sum local = 6.81459e-09, global = -5.70641e-10, cumulative = -1.36533e-06
GAMG:  Solving for p, Initial residual = 7.66878e-07, Final residual = 7.66878e-07, No Iterations 0
time step continuity errors : sum local = 9.58907e-09, global = 1.43202e-09, cumulative = -1.3639e-06
GAMG:  Solving for p, Initial residual = 1.03218e-06, Final residual = 1.77046e-07, No Iterations 1
time step continuity errors : sum local = 2.21379e-09, global = 1.42132e-10, cumulative = -1.36375e-06
GAMG:  Solving for p, Initial residual = 1.66517e-07, Final residual = 1.66517e-07, No Iterations 0
time step continuity errors : sum local = 2.08214e-09, global = -2.90643e-10, cumulative = -1.36404e-06
GAMG:  Solving for p, Initial residual = 2.27643e-07, Final residual = 2.27643e-07, No Iterations 0
time step continuity errors : sum local = 2.84646e-09, global = -7.68778e-10, cumulative = -1.36481e-06
46



ExecutionTime = 0.18 s  ClockTime = 1 s

Time = 0.47

46



Courant Number mean: 0.0680019 max: 0.100003
smoothSolver:  Solving for Ux, Initial residual = 2.32523e-06, Final residual = 2.32523e-06, No Iterations 0
smoothSolver:  Solving for Uy, Initial residual = 0.194643, Final residual = 7.14892e-06, No Iterations 9
GAMG:  Solving for p, Initial residual = 3.46405e-07, Final residual = 3.46405e-07, No Iterations 0
time step continuity errors : sum local = 4.33146e-09, global = 8.27736e-10, cumulative = -1.36399e-06
GAMG:  Solving for p, Initial residual = 3.94004e-07, Final residual = 3.94004e-07, No Iterations 0
time step continuity errors : sum local = 4.92664e-09, global = 1.69923e-09, cumulative = -1.36229e-06
GAMG:  Solving for p, Initial residual = 4.19567e-07, Final residual = 4.19567e-07, No Iterations 0
time step continuity errors : sum local = 5.24628e-09, global = 2.10748e-09, cumulative = -1.36018e-06
GAMG:  Solving for p, Initial residual = 4.27716e-07, Final residual = 4.27716e-07, No Iterations 0
time step continuity errors : sum local = 5.34817e-09, global = 2.22341e-09, cumulative = -1.35796e-06
GAMG:  Solving for p, Initial residual = 4.2388e-07, Final residual = 4.2388e-07, No Iterations 0
time step continuity errors : sum local = 5.30021e-09, global = 2.16209e-09, cumulative = -1.35579e-06
4747







ExecutionTime = 0.19 s  ClockTime = 1 s

Time = 0.48

Courant Number mean: 0.0680016 max: 0.100002
smoothSolver:  Solving for Ux, Initial residual = 2.01348e-06, Final residual = 2.01348e-06, No Iterations 0
smoothSolver:  Solving for Uy, Initial residual = 0.0589982, Final residual = 7.78027e-06, No Iterations 8
GAMG:  Solving for p, Initial residual = 5.79631e-07, Final residual = 5.79631e-07, No Iterations 0
time step continuity errors : sum local = 7.24773e-09, global = 3.61341e-09, cumulative = -1.35218e-06
GAMG:  Solving for p, Initial residual = 6.4121e-07, Final residual = 6.4121e-07, No Iterations 0
time step continuity errors : sum local = 8.01771e-09, global = 4.43818e-09, cumulative = -1.34774e-06
GAMG:  Solving for p, Initial residual = 6.7374e-07, Final residual = 6.7374e-07, No Iterations 0
time step continuity errors : sum local = 8.42446e-09, global = 4.84977e-09, cumulative = -1.34289e-06
GAMG:  Solving for p, Initial residual = 6.85198e-07, Final residual = 6.85198e-07, No Iterations 0
time step continuity errors : sum local = 8.56774e-09, global = 4.99573e-09, cumulative = -1.3379e-06
GAMG:  Solving for p, Initial residual = 6.83913e-07, Final residual = 6.83913e-07, No Iterations 0
time step continuity errors : sum local = 8.55167e-09, global = 4.97801e-09, cumulative = -1.33292e-06
4848







ExecutionTime = 0.19 s  ClockTime = 1 s

Time = 0.49

Courant Number mean: 0.0680014 max: 0.100002
smoothSolver:  Solving for Ux, Initial residual = 1.74422e-06, Final residual = 1.74422e-06, No Iterations 0
smoothSolver:  Solving for Uy, Initial residual = 0.0249612, Final residual = 3.42148e-06, No Iterations 8
GAMG:  Solving for p, Initial residual = 8.08991e-07, Final residual = 8.08991e-07, No Iterations 0
time step continuity errors : sum local = 1.01156e-08, global = 6.3239e-09, cumulative = -1.32659e-06
GAMG:  Solving for p, Initial residual = 8.69662e-07, Final residual = 8.69662e-07, No Iterations 0
time step continuity errors : sum local = 1.08743e-08, global = 7.10936e-09, cumulative = -1.31949e-06
GAMG:  Solving for p, Initial residual = 9.01451e-07, Final residual = 9.01451e-07, No Iterations 0
time step continuity errors : sum local = 1.12718e-08, global = 7.52124e-09, cumulative = -1.31196e-06
GAMG:  Solving for p, Initial residual = 9.14092e-07, Final residual = 9.14092e-07, No Iterations 0
time step continuity errors : sum local = 1.14298e-08, global = 7.69011e-09, cumulative = -1.30427e-06
GAMG:  Solving for p, Initial residual = 9.14994e-07, Final residual = 9.14994e-07, No Iterations 0
time step continuity errors : sum local = 1.14411e-08, global = 7.70717e-09, cumulative = -1.29657e-06
4949







ExecutionTime = 0.19 s  ClockTime = 1 s

Time = 0.5

Courant Number mean: 0.0680012 max: 0.100002
smoothSolver:  Solving for Ux, Initial residual = 1.51136e-06, Final residual = 1.51136e-06, No Iterations 0
smoothSolver:  Solving for Uy, Initial residual = 0.0117891, Final residual = 4.87547e-06, No Iterations 7
GAMG:  Solving for p, Initial residual = 1.02239e-06, Final residual = 6.05019e-07, No Iterations 1
time step continuity errors : sum local = 7.56517e-09, global = 6.19746e-10, cumulative = -1.29595e-06
GAMG:  Solving for p, Initial residual = 7.83556e-07, Final residual = 7.83556e-07, No Iterations 0
time step continuity errors : sum local = 9.7976e-09, global = -3.38644e-09, cumulative = -1.29933e-06
GAMG:  Solving for p, Initial residual = 9.93971e-07, Final residual = 9.93971e-07, No Iterations 0
time step continuity errors : sum local = 1.24286e-08, global = -6.49598e-09, cumulative = -1.30583e-06
GAMG:  Solving for p, Initial residual = 1.1891e-06, Final residual = 3.60129e-07, No Iterations 1
time step continuity errors : sum local = 4.50307e-09, global = -3.49745e-10, cumulative = -1.30618e-06
GAMG:  Solving for p, Initial residual = 5.18902e-07, Final residual = 5.18902e-07, No Iterations 0
time step continuity errors : sum local = 6.48837e-09, global = 2.46657e-09, cumulative = -1.30371e-06
5050







ExecutionTime = 0.19 s  ClockTime = 1 s

Time = 0.51

Courant Number mean: 0.068001 max: 0.100002
smoothSolver:  Solving for Ux, Initial residual = 1.30576e-06, Final residual = 1.30576e-06, No Iterations 0
smoothSolver:  Solving for Uy, Initial residual = 0.371873, Final residual = 5.30857e-06, No Iterations 10
GAMG:  Solving for p, Initial residual = 8.74681e-07, Final residual = 8.74681e-07, No Iterations 0
time step continuity errors : sum local = 1.0937e-08, global = 4.03883e-09, cumulative = -1.29967e-06
GAMG:  Solving for p, Initial residual = 9.25588e-07, Final residual = 9.25588e-07, No Iterations 0
time step continuity errors : sum local = 1.15736e-08, global = 5.03547e-09, cumulative = -1.29464e-06
GAMG:  Solving for p, Initial residual = 9.60819e-07, Final residual = 9.60819e-07, No Iterations 0
time step continuity errors : sum local = 1.20141e-08, global = 5.64911e-09, cumulative = -1.28899e-06
GAMG:  Solving for p, Initial residual = 9.84064e-07, Final residual = 9.84064e-07, No Iterations 0
time step continuity errors : sum local = 1.23048e-08, global = 6.00274e-09, cumulative = -1.28299e-06
GAMG:  Solving for p, Initial residual = 9.98014e-07, Final residual = 9.98014e-07, No Iterations 0
time step continuity errors : sum local = 1.24792e-08, global = 6.18752e-09, cumulative = -1.2768e-06
5151







ExecutionTime = 0.2 s  ClockTime = 1 s

Time = 0.52

Courant Number mean: 0.0680009 max: 0.100001
smoothSolver:  Solving for Ux, Initial residual = 1.13216e-06, Final residual = 1.13216e-06, No Iterations 0
smoothSolver:  Solving for Uy, Initial residual = 0.0938611, Final residual = 4.18705e-06, No Iterations 9
GAMG:  Solving for p, Initial residual = 1.22281e-06, Final residual = 2.15994e-07, No Iterations 1
time step continuity errors : sum local = 2.70079e-09, global = 1.3456e-10, cumulative = -1.27666e-06
GAMG:  Solving for p, Initial residual = 5.36246e-07, Final residual = 5.36246e-07, No Iterations 0
time step continuity errors : sum local = 6.70524e-09, global = -3.12658e-09, cumulative = -1.27979e-06
GAMG:  Solving for p, Initial residual = 9.04192e-07, Final residual = 9.04192e-07, No Iterations 0
time step continuity errors : sum local = 1.1306e-08, global = -5.66981e-09, cumulative = -1.28546e-06
GAMG:  Solving for p, Initial residual = 1.17392e-06, Final residual = 3.08842e-07, No Iterations 1
time step continuity errors : sum local = 3.86176e-09, global = -4.04717e-10, cumulative = -1.28587e-06
GAMG:  Solving for p, Initial residual = 5.14408e-07, Final residual = 5.14408e-07, No Iterations 0
time step continuity errors : sum local = 6.43217e-09, global = 2.32285e-09, cumulative = -1.28354e-06
5252







ExecutionTime = 0.2 s  ClockTime = 1 s

Time = 0.53

Courant Number mean: 0.0680008 max: 0.100001
smoothSolver:  Solving for Ux, Initial residual = 9.70991e-07, Final residual = 9.70991e-07, No Iterations 0
smoothSolver:  Solving for Uy, Initial residual = 0.444126, Final residual = 6.65942e-06, No Iterations 10
GAMG:  Solving for p, Initial residual = 9.42008e-07, Final residual = 9.42008e-07, No Iterations 0
time step continuity errors : sum local = 1.17789e-08, global = 4.09444e-09, cumulative = -1.27945e-06
GAMG:  Solving for p, Initial residual = 1.02847e-06, Final residual = 2.05301e-07, No Iterations 1
time step continuity errors : sum local = 2.56709e-09, global = 8.18211e-12, cumulative = -1.27944e-06
GAMG:  Solving for p, Initial residual = 4.98727e-07, Final residual = 4.98727e-07, No Iterations 0
time step continuity errors : sum local = 6.2361e-09, global = -2.39581e-09, cumulative = -1.28184e-06
GAMG:  Solving for p, Initial residual = 8.2087e-07, Final residual = 8.2087e-07, No Iterations 0
time step continuity errors : sum local = 1.02642e-08, global = -4.28394e-09, cumulative = -1.28612e-06
GAMG:  Solving for p, Initial residual = 1.05214e-06, Final residual = 2.37156e-07, No Iterations 1
time step continuity errors : sum local = 2.96541e-09, global = -1.06573e-10, cumulative = -1.28623e-06
5353







ExecutionTime = 0.21 s  ClockTime = 1 s

Time = 0.54

Courant Number mean: 0.0680007 max: 0.100001
smoothSolver:  Solving for Ux, Initial residual = 8.38809e-07, Final residual = 8.38809e-07, No Iterations 0
smoothSolver:  Solving for Uy, Initial residual = 0.727821, Final residual = 3.38971e-06, No Iterations 11
GAMG:  Solving for p, Initial residual = 7.40602e-07, Final residual = 7.40602e-07, No Iterations 0
time step continuity errors : sum local = 9.26051e-09, global = 2.22351e-09, cumulative = -1.284e-06
GAMG:  Solving for p, Initial residual = 8.46713e-07, Final residual = 8.46713e-07, No Iterations 0
time step continuity errors : sum local = 1.05873e-08, global = 3.86066e-09, cumulative = -1.28014e-06
GAMG:  Solving for p, Initial residual = 9.31532e-07, Final residual = 9.31532e-07, No Iterations 0
time step continuity errors : sum local = 1.16479e-08, global = 5.01058e-09, cumulative = -1.27513e-06
GAMG:  Solving for p, Initial residual = 9.9357e-07, Final residual = 9.9357e-07, No Iterations 0
[...]
time step continuity errors : sum local = 0.000975384, global = 6.21318e-05, cumulative = 6.78239e-05
GAMG:  Solving for p, Initial residual = 0.0093763, Final residual = 0.000673629, No Iterations 2
time step continuity errors : sum local = 0.000321457, global = -1.60611e-05, cumulative = 5.17628e-05
GAMG:  Solving for p, Initial residual = 0.00330235, Final residual = 0.000221179, No Iterations 3
time step continuity errors : sum local = 0.00010587, global = -6.24563e-06, cumulative = 4.55172e-05
GAMG:  Solving for p, Initial residual = 0.00270183, Final residual = 0.000167249, No Iterations 2
time step continuity errors : sum local = 8.00721e-05, global = 3.40251e-06, cumulative = 4.89197e-05
GAMG:  Solving for p, Initial residual = 0.00311329, Final residual = 6.52885e-07, No Iterations 11
time step continuity errors : sum local = 3.12177e-07, global = 1.04141e-08, cumulative = 4.89301e-05
4343







ExecutionTime = 11.12 s  ClockTime = 15 s

Time = 1.44

Courant Number mean: 0.915369 max: 1.9008
smoothSolver:  Solving for Ux, Initial residual = 0.0108309, Final residual = 6.60598e-06, No Iterations 14
smoothSolver:  Solving for Uy, Initial residual = 0.0387231, Final residual = 6.76483e-06, No Iterations 14
GAMG:  Solving for p, Initial residual = 0.0269493, Final residual = 0.00175992, No Iterations 1
time step continuity errors : sum local = 0.000848748, global = 8.43736e-05, cumulative = 0.000133304
GAMG:  Solving for p, Initial residual = 0.0103123, Final residual = 0.000881674, No Iterations 2
time step continuity errors : sum local = 0.000432366, global = -2.1137e-05, cumulative = 0.000112167
GAMG:  Solving for p, Initial residual = 0.00381908, Final residual = 0.000343493, No Iterations 2
time step continuity errors : sum local = 0.000169031, global = -1.03121e-05, cumulative = 0.000101855
GAMG:  Solving for p, Initial residual = 0.00324539, Final residual = 0.000205238, No Iterations 2
time step continuity errors : sum local = 0.000100955, global = 4.23865e-06, cumulative = 0.000106093
GAMG:  Solving for p, Initial residual = 0.00358688, Final residual = 8.49962e-07, No Iterations 10
time step continuity errors : sum local = 4.17537e-07, global = 1.28243e-08, cumulative = 0.000106106
4444







ExecutionTime = 11.18 s  ClockTime = 15 s

Time = 1.45

Courant Number mean: 0.939653 max: 1.93938
smoothSolver:  Solving for Ux, Initial residual = 0.0104743, Final residual = 6.95807e-06, No Iterations 15
smoothSolver:  Solving for Uy, Initial residual = 0.0401952, Final residual = 7.3938e-06, No Iterations 15
GAMG:  Solving for p, Initial residual = 0.0253534, Final residual = 0.0018871, No Iterations 1
time step continuity errors : sum local = 0.000934056, global = 0.000171596, cumulative = 0.000277702
GAMG:  Solving for p, Initial residual = 0.0103093, Final residual = 0.000950636, No Iterations 2
time step continuity errors : sum local = 0.000477769, global = -3.49332e-05, cumulative = 0.000242769
GAMG:  Solving for p, Initial residual = 0.00436363, Final residual = 0.000363856, No Iterations 2
time step continuity errors : sum local = 0.000183407, global = -1.13481e-05, cumulative = 0.000231421
GAMG:  Solving for p, Initial residual = 0.00388604, Final residual = 0.000322604, No Iterations 2
time step continuity errors : sum local = 0.000162486, global = 1.11055e-05, cumulative = 0.000242527
GAMG:  Solving for p, Initial residual = 0.00432932, Final residual = 6.06796e-07, No Iterations 11
time step continuity errors : sum local = 3.05217e-07, global = 8.09582e-09, cumulative = 0.000242535
4545







ExecutionTime = 11.24 s  ClockTime = 15 s

Time = 1.46

Courant Number mean: 0.963958 max: 1.96635
smoothSolver:  Solving for Ux, Initial residual = 0.0101248, Final residual = 7.06252e-06, No Iterations 16
smoothSolver:  Solving for Uy, Initial residual = 0.0431687, Final residual = 8.62861e-06, No Iterations 14
GAMG:  Solving for p, Initial residual = 0.0255949, Final residual = 0.00206287, No Iterations 1
time step continuity errors : sum local = 0.00104504, global = 0.000260552, cumulative = 0.000503086
GAMG:  Solving for p, Initial residual = 0.0102413, Final residual = 0.000939158, No Iterations 2
time step continuity errors : sum local = 0.000482465, global = -1.41732e-06, cumulative = 0.000501669
GAMG:  Solving for p, Initial residual = 0.00448837, Final residual = 0.00030141, No Iterations 2
time step continuity errors : sum local = 0.000155164, global = -9.14953e-06, cumulative = 0.00049252
GAMG:  Solving for p, Initial residual = 0.00400996, Final residual = 0.000252293, No Iterations 3
time step continuity errors : sum local = 0.000129813, global = 1.3121e-05, cumulative = 0.000505641
GAMG:  Solving for p, Initial residual = 0.00427669, Final residual = 5.92768e-07, No Iterations 11
time step continuity errors : sum local = 3.04757e-07, global = 2.42462e-09, cumulative = 0.000505643
4646







ExecutionTime = 11.3 s  ClockTime = 15 s

Time = 1.47

Courant Number mean: 0.987505 max: 1.97829
smoothSolver:  Solving for Ux, Initial residual = 0.0100993, Final residual = 6.83747e-06, No Iterations 19
smoothSolver:  Solving for Uy, Initial residual = 0.0448426, Final residual = 7.35108e-06, No Iterations 18
GAMG:  Solving for p, Initial residual = 0.0257938, Final residual = 0.00226464, No Iterations 1
time step continuity errors : sum local = 0.00117239, global = 0.000133277, cumulative = 0.00063892
GAMG:  Solving for p, Initial residual = 0.0100244, Final residual = 0.000776022, No Iterations 2
time step continuity errors : sum local = 0.000407328, global = -2.52356e-05, cumulative = 0.000613684
GAMG:  Solving for p, Initial residual = 0.00415798, Final residual = 0.000328422, No Iterations 2
time step continuity errors : sum local = 0.000172691, global = -8.34431e-06, cumulative = 0.00060534
GAMG:  Solving for p, Initial residual = 0.00376905, Final residual = 0.000256268, No Iterations 3
time step continuity errors : sum local = 0.000134735, global = 9.6364e-06, cumulative = 0.000614976
GAMG:  Solving for p, Initial residual = 0.00414127, Final residual = 6.54536e-07, No Iterations 11
time step continuity errors : sum local = 3.4375e-07, global = 1.4134e-09, cumulative = 0.000614977
4747







ExecutionTime = 11.37 s  ClockTime = 15 s

Time = 1.48

Courant Number mean: 1.01004 max: 1.99024
smoothSolver:  Solving for Ux, Initial residual = 0.0105693, Final residual = 9.32183e-06, No Iterations 20
smoothSolver:  Solving for Uy, Initial residual = 0.0465141, Final residual = 7.21987e-06, No Iterations 26
GAMG:  Solving for p, Initial residual = 0.0255116, Final residual = 0.00244464, No Iterations 1
time step continuity errors : sum local = 0.00129673, global = 0.000340562, cumulative = 0.000955539
GAMG:  Solving for p, Initial residual = 0.0109516, Final residual = 0.000823742, No Iterations 2
time step continuity errors : sum local = 0.00044423, global = -5.10529e-06, cumulative = 0.000950434
GAMG:  Solving for p, Initial residual = 0.00486377, Final residual = 0.00021962, No Iterations 2
time step continuity errors : sum local = 0.000118756, global = -6.51815e-06, cumulative = 0.000943916
GAMG:  Solving for p, Initial residual = 0.00413197, Final residual = 0.000356205, No Iterations 3
time step continuity errors : sum local = 0.00019281, global = 1.6983e-05, cumulative = 0.000960899
GAMG:  Solving for p, Initial residual = 0.00474766, Final residual = 9.40811e-07, No Iterations 11
time step continuity errors : sum local = 5.08197e-07, global = -1.34573e-09, cumulative = 0.000960898
4848







ExecutionTime = 11.44 s  ClockTime = 15 s

Time = 1.49

Courant Number mean: 1.03163 max: 2.05377
smoothSolver:  Solving for Ux, Initial residual = 0.010963, Final residual = 7.45619e-06, No Iterations 28
smoothSolver:  Solving for Uy, Initial residual = 0.0499685, Final residual = 7.13201e-06, No Iterations 36
GAMG:  Solving for p, Initial residual = 0.0251165, Final residual = 0.00118225, No Iterations 2
time step continuity errors : sum local = 0.000645896, global = 1.96858e-05, cumulative = 0.000980583
GAMG:  Solving for p, Initial residual = 0.0122326, Final residual = 0.000930924, No Iterations 2
time step continuity errors : sum local = 0.000517582, global = -2.27634e-05, cumulative = 0.00095782
GAMG:  Solving for p, Initial residual = 0.00543456, Final residual = 0.000240327, No Iterations 2
time step continuity errors : sum local = 0.000134063, global = -8.85624e-06, cumulative = 0.000948964
GAMG:  Solving for p, Initial residual = 0.0041449, Final residual = 0.000351356, No Iterations 3
time step continuity errors : sum local = 0.000196164, global = 1.63062e-05, cumulative = 0.00096527
GAMG:  Solving for p, Initial residual = 0.00514139, Final residual = 8.6093e-07, No Iterations 12
time step continuity errors : sum local = 4.80045e-07, global = -7.26588e-09, cumulative = 0.000965263
4949







ExecutionTime = 11.52 s  ClockTime = 15 s

Time = 1.5

Courant Number mean: 1.05419 max: 2.10537
smoothSolver:  Solving for Ux, Initial residual = 0.0113803, Final residual = 9.4555e-06, No Iterations 44
smoothSolver:  Solving for Uy, Initial residual = 0.056782, Final residual = 7.3168e-06, No Iterations 54
GAMG:  Solving for p, Initial residual = 0.0266861, Final residual = 0.00251979, No Iterations 1
time step continuity errors : sum local = 0.00141852, global = 0.000117499, cumulative = 0.00108276
GAMG:  Solving for p, Initial residual = 0.0137623, Final residual = 0.0005807, No Iterations 2
time step continuity errors : sum local = 0.000332387, global = -1.75757e-05, cumulative = 0.00106519
GAMG:  Solving for p, Initial residual = 0.00653116, Final residual = 0.000259094, No Iterations 2
time step continuity errors : sum local = 0.000148657, global = -1.06665e-05, cumulative = 0.00105452
GAMG:  Solving for p, Initial residual = 0.0046298, Final residual = 0.000375096, No Iterations 3
time step continuity errors : sum local = 0.000215482, global = 1.31386e-05, cumulative = 0.00106766
GAMG:  Solving for p, Initial residual = 0.00605764, Final residual = 6.00596e-07, No Iterations 12
time step continuity errors : sum local = 3.44923e-07, global = -1.32386e-09, cumulative = 0.00106766
5050







ExecutionTime = 11.6 s  ClockTime = 15 s

Time = 1.51

Courant Number mean: 1.07962 max: 2.14684
smoothSolver:  Solving for Ux, Initial residual = 0.0117164, Final residual = 9.37824e-06, No Iterations 94
smoothSolver:  Solving for Uy, Initial residual = 0.0643942, Final residual = 8.83084e-06, No Iterations 120
GAMG:  Solving for p, Initial residual = 0.0265217, Final residual = 0.0025874, No Iterations 1
time step continuity errors : sum local = 0.00149897, global = -0.000114646, cumulative = 0.000953011
GAMG:  Solving for p, Initial residual = 0.0134683, Final residual = 0.00119884, No Iterations 1
time step continuity errors : sum local = 0.000705988, global = -0.00028888, cumulative = 0.000664131
GAMG:  Solving for p, Initial residual = 0.00752674, Final residual = 0.00049279, No Iterations 2
time step continuity errors : sum local = 0.000291163, global = -1.87685e-05, cumulative = 0.000645362
GAMG:  Solving for p, Initial residual = 0.00502623, Final residual = 0.000456473, No Iterations 2
time step continuity errors : sum local = 0.000269895, global = 1.04323e-05, cumulative = 0.000655795
GAMG:  Solving for p, Initial residual = 0.00599648, Final residual = 9.54117e-07, No Iterations 11
time step continuity errors : sum local = 5.63565e-07, global = -1.14723e-08, cumulative = 0.000655783
5151







ExecutionTime = 11.7 s  ClockTime = 16 s

Time = 1.52

Courant Number mean: 1.10654 max: 2.1781
smoothSolver:  Solving for Ux, Initial residual = 0.0119108, Final residual = 1282.69, No Iterations 1000
smoothSolver:  Solving for Uy, Initial residual = 0.0678884, Final residual = 6413.5, No Iterations 1000
GAMG:  Solving for p, Initial residual = 0.99986, Final residual = 0.0605657, No Iterations 3
time step continuity errors : sum local = 197.45, global = 9.27378, cumulative = 9.27444
GAMG:  Solving for p, Initial residual = 0.742411, Final residual = 0.0376176, No Iterations 2
time step continuity errors : sum local = 222.091, global = -5.22544, cumulative = 4.049
GAMG:  Solving for p, Initial residual = 0.736498, Final residual = 0.0544233, No Iterations 3
time step continuity errors : sum local = 338.036, global = -18.8224, cumulative = -14.7734
GAMG:  Solving for p, Initial residual = 0.720537, Final residual = 0.0397024, No Iterations 2
time step continuity errors : sum local = 342.488, global = 28.6602, cumulative = 13.8868
GAMG:  Solving for p, Initial residual = 0.716722, Final residual = 9.49878e-07, No Iterations 22
time step continuity errors : sum local = 0.0126909, global = -0.000248539, cumulative = 13.8865
5252







ExecutionTime = 12.24 s  ClockTime = 16 s

Time = 1.53

Courant Number mean: 10587.1 max: 40434.6
[0] #0  Foam::error::printStack(Foam::Ostream&) at ??:?
[0] #1  Foam::sigFpe::sigHandler(int) at ??:?
[0] #2  ? in "/lib/x86_64-linux-gnu/libc.so.6"
[0] #3  Foam::symGaussSeidelSmoother::smooth(Foam::word const&, Foam::Field<double>&, Foam::lduMatrix const&, Foam::Field<double> const&, Foam::FieldField<Foam::Field, double> const&, Foam::UPtrList<Foam::lduInterfaceField const> const&, unsigned char, int) at ??:?
[0] #4  Foam::symGaussSeidelSmoother::smooth(Foam::Field<double>&, Foam::Field<double> const&, unsigned char, int) const at ??:?
[0] #5  Foam::smoothSolver::solve(Foam::Field<double>&, Foam::Field<double> const&, unsigned char) const at ??:?
[0] #6  ? at ??:?
[0] #7  ? at ??:?
[0] #8  ? at ??:?
[0] #9  __libc_start_main in "/lib/x86_64-linux-gnu/libc.so.6"
[0] #10  ? at ??:?

===================================================================================
=   BAD TERMINATION OF ONE OF YOUR APPLICATION PROCESSES
=   PID 6645 RUNNING AT hermes-N552VW
=   EXIT CODE: 136
=   CLEANING UP REMAINING PROCESSES
=   YOU CAN IGNORE THE BELOW CLEANUP MESSAGES
===================================================================================
YOUR APPLICATION TERMINATED WITH THE EXIT STRING: Floating point exception (signal 8)
This typically refers to a problem with your application.
Please see the FAQ page for debugging suggestions
++ reconstructPar
/*---------------------------------------------------------------------------*\
| =========                 |                                                 |
| \\      /  F ield         | OpenFOAM: The Open Source CFD Toolbox           |
|  \\    /   O peration     | Version:  5.0                                   |
|   \\  /    A nd           | Web:      www.OpenFOAM.org                      |
|    \\/     M anipulation  |                                                 |
\*---------------------------------------------------------------------------*/
Build  : 5.0-dbb428a3a855
Exec   : reconstructPar
Date   : Nov 07 2017
Time   : 17:05:59
Host   : "hermes-N552VW"
PID    : 6694
I/O    : uncollated
Case   : /home/hermes/Desktop/gitDPD/DPDCFD/poiseuilleflow
nProcs : 1
sigFpe : Enabling floating point exception trapping (FOAM_SIGFPE).
fileModificationChecking : Monitoring run-time modified files using timeStampMaster (fileModificationSkew 10)
allowSystemOperations : Allowing user-supplied system call operations

// * * * * * * * * * * * * * * * * * * * * * * * * * * * * * * * * * * * * * //
Create time



Reconstructing fields for mesh region0

Time = 0.1

Reconstructing FV fields

    Reconstructing volScalarFields

        nu
        shearRate
        p
        viscoDPD

    Reconstructing volVectorFields

        U

    Reconstructing surfaceScalarFields

        phi

Reconstructing point fields

No point fields

No lagrangian fields

Time = 0.2

Reconstructing FV fields

    Reconstructing volScalarFields

        nu
        shearRate
        p
        viscoDPD

    Reconstructing volVectorFields

        U

    Reconstructing surfaceScalarFields

        phi

Reconstructing point fields

No point fields

No lagrangian fields

Time = 0.3

Reconstructing FV fields

    Reconstructing volScalarFields

        nu
        shearRate
        p
        viscoDPD

    Reconstructing volVectorFields

        U

    Reconstructing surfaceScalarFields

        phi

Reconstructing point fields

No point fields

No lagrangian fields

Time = 0.4

Reconstructing FV fields

    Reconstructing volScalarFields

        nu
        shearRate
        p
        viscoDPD

    Reconstructing volVectorFields

        U

    Reconstructing surfaceScalarFields

        phi

Reconstructing point fields

No point fields

No lagrangian fields

Time = 0.5

Reconstructing FV fields

    Reconstructing volScalarFields

        nu
        shearRate
        p
        viscoDPD

    Reconstructing volVectorFields

        U

    Reconstructing surfaceScalarFields

        phi

Reconstructing point fields

No point fields

No lagrangian fields

Time = 0.6

Reconstructing FV fields

    Reconstructing volScalarFields

        nu
        shearRate
        p
        viscoDPD

    Reconstructing volVectorFields

        U

    Reconstructing surfaceScalarFields

        phi

Reconstructing point fields

No point fields

No lagrangian fields

Time = 0.7

Reconstructing FV fields

    Reconstructing volScalarFields

        nu
        shearRate
        p
        viscoDPD

    Reconstructing volVectorFields

        U

    Reconstructing surfaceScalarFields

        phi

Reconstructing point fields

No point fields

No lagrangian fields

Time = 0.8

Reconstructing FV fields

    Reconstructing volScalarFields

        nu
        shearRate
        p
        viscoDPD

    Reconstructing volVectorFields

        U

    Reconstructing surfaceScalarFields

        phi

Reconstructing point fields

No point fields

No lagrangian fields

Time = 0.9

Reconstructing FV fields

    Reconstructing volScalarFields

        nu
        shearRate
        p
        viscoDPD

    Reconstructing volVectorFields

        U

    Reconstructing surfaceScalarFields

        phi

Reconstructing point fields

No point fields

No lagrangian fields

Time = 1

Reconstructing FV fields

    Reconstructing volScalarFields

        nu
        shearRate
        p
        viscoDPD

    Reconstructing volVectorFields

        U

    Reconstructing surfaceScalarFields

        phi

Reconstructing point fields

No point fields

No lagrangian fields

Time = 1.1

Reconstructing FV fields

    Reconstructing volScalarFields

        nu
        shearRate
        p
        viscoDPD

    Reconstructing volVectorFields

        U

    Reconstructing surfaceScalarFields

        phi

Reconstructing point fields

No point fields

No lagrangian fields

Time = 1.2

Reconstructing FV fields

    Reconstructing volScalarFields

        nu
        shearRate
        p
        viscoDPD

    Reconstructing volVectorFields

        U

    Reconstructing surfaceScalarFields

        phi

Reconstructing point fields

No point fields

No lagrangian fields

Time = 1.3

Reconstructing FV fields

    Reconstructing volScalarFields

        nu
        shearRate
        p
        viscoDPD

    Reconstructing volVectorFields

        U

    Reconstructing surfaceScalarFields

        phi

Reconstructing point fields

No point fields

No lagrangian fields

Time = 1.4

Reconstructing FV fields

    Reconstructing volScalarFields

        nu
        shearRate
        p
        viscoDPD

    Reconstructing volVectorFields

        U

    Reconstructing surfaceScalarFields

        phi

Reconstructing point fields

No point fields

No lagrangian fields

Time = 1.5

Reconstructing FV fields

    Reconstructing volScalarFields

        nu
        shearRate
        p
        viscoDPD

    Reconstructing volVectorFields

        U

    Reconstructing surfaceScalarFields

        phi

Reconstructing point fields

No point fields

No lagrangian fields


End

