/*---------------------------------------------------------------------------*\
| =========                 |                                                 |
| \\      /  F ield         | OpenFOAM: The Open Source CFD Toolbox           |
|  \\    /   O peration     | Version:  5.0                                   |
|   \\  /    A nd           | Web:      www.OpenFOAM.org                      |
|    \\/     M anipulation  |                                                 |
\*---------------------------------------------------------------------------*/
Build  : 5.0-dbb428a3a855
Exec   : AnonNewtonianIcoFoam -parallel
Date   : Oct 25 2017
Time   : 12:43:01
Host   : "hermes-N552VW"
PID    : 10791
I/O    : uncollated
Case   : /home/hermes/Desktop/gitDPD/DPDCFD/poiseuilleflow
nProcs : 2
Slaves : 1("hermes-N552VW.10792")
Pstream initialized with:
    floatTransfer      : 0
    nProcsSimpleSum    : 0
    commsType          : nonBlocking
    polling iterations : 0
sigFpe : Enabling floating point exception trapping (FOAM_SIGFPE).
fileModificationChecking : Monitoring run-time modified files using timeStampMaster (fileModificationSkew 10)
allowSystemOperations : Allowing user-supplied system call operations

// * * * * * * * * * * * * * * * * * * * * * * * * * * * * * * * * * * * * * //
Create time

Create mesh, no clear-out for time = 0


PISO: Operating solver in PISO mode

Reading field p

Reading field U

Hey! I am faking the viscosity 

Reading/calculating face flux field phi

[0] 
[0] 
[0] --> FOAM FATAL IO ERROR: 
[0] keyword transportModel is undefined in dictionary "/home/hermes/Desktop/gitDPD/DPDCFD/poiseuilleflow/constant/transportProperties"
[0] 
[0] file: /home/hermes/Desktop/gitDPD/DPDCFD/poiseuilleflow/constant/transportProperties from line 18 to line 18.
[0] 
[0]     From function [1] const Foam::entry& Foam::dictionary::lookupEntry(const Foam::word&, bool, bool) const
[0]     in file db/dictionary/dictionary.C at line 566.
[0] 
FOAM parallel run exiting
[0] 
[1] 
[1] --> FOAM FATAL IO ERROR: 

[1] keyword transportModel is undefined in dictionary "IOstream"
[1] 
[1] file: IOstream from line 0 to line 0.
[1] 
[1]     From function const Foam::entry& Foam::dictionary::lookupEntry(const Foam::word&, bool, bool) const
[1]     in file db/dictionary/dictionary.C at line 566.
[1] 
FOAM parallel run exiting
[1] 
application called MPI_Abort(MPI_COMM_WORLD, 1) - process 0
