/*---------------------------------------------------------------------------*\
| =========                 |                                                 |
| \\      /  F ield         | OpenFOAM: The Open Source CFD Toolbox           |
|  \\    /   O peration     | Version:  5.0                                   |
|   \\  /    A nd           | Web:      www.OpenFOAM.org                      |
|    \\/     M anipulation  |                                                 |
\*---------------------------------------------------------------------------*/
Build  : 5.0-dbb428a3a855
Exec   : AnonNewtonianIcoFoam -parallel
Date   : Oct 25 2017
Time   : 16:36:20
Host   : "hermes-N552VW"
PID    : 21530
I/O    : uncollated
Case   : /home/hermes/Desktop/gitDPD/DPDCFD/poiseuilleflow
nProcs : 2
Slaves : 1("hermes-N552VW.21531")
Pstream initialized with:
    floatTransfer      : 0
    nProcsSimpleSum    : 0
    commsType          : nonBlocking
    polling iterations : 0
sigFpe : Enabling floating point exception trapping (FOAM_SIGFPE).
fileModificationChecking : Monitoring run-time modified files using timeStampMaster (fileModificationSkew 10)
allowSystemOperations : Allowing user-supplied system call operations

// * * * * * * * * * * * * * * * * * * * * * * * * * * * * * * * * * * * * * //
Create time

Create mesh, no clear-out for time = 0


PISO: Operating solver in PISO mode

Reading field p

Reading field U

Hey! I am faking the viscosity 

Reading/calculating face flux field phi

Selecting incompressible transport model CrossPowerLaw

Starting time loop

Time = 0.01

Courant Number mean: 0.1 max: 0.1
Bad Mood
Bad Mood
smoothSolver:  Solving for Ux, Initial residual = 1, Final residual = 6.56804e-06, No Iterations 13
smoothSolver:  Solving for Uy, Initial residual = 0.996488, Final residual = 4.22069e-06, No Iterations 10
GAMG:  Solving for p, Initial residual = 1, Final residual = 0.0631586, No Iterations 5
time step continuity errors : sum local = 0.00108588, global = -9.31667e-05, cumulative = -9.31667e-05
GAMG:  Solving for p, Initial residual = 0.218916, Final residual = 0.0205008, No Iterations 5
time step continuity errors : sum local = 0.000918407, global = 8.50653e-05, cumulative = -8.10136e-06
GAMG:  Solving for p, Initial residual = 0.144608, Final residual = 0.00881315, No Iterations 5
time step continuity errors : sum local = 0.000152784, global = 1.29824e-05, cumulative = 4.88102e-06
GAMG:  Solving for p, Initial residual = 0.0502852, Final residual = 0.00438883, No Iterations 2
time step continuity errors : sum local = 6.31702e-05, global = -4.97989e-06, cumulative = -9.88651e-08
GAMG:  Solving for p, Initial residual = 0.0273813, Final residual = 7.87936e-07, No Iterations 18
time step continuity errors : sum local = 1.0733e-08, global = -7.07804e-10, cumulative = -9.9573e-08
ExecutionTime = 0.01 s  ClockTime = 0 s

Time = 0.02

Courant Number mean: 0.0844079 max: 0.109674
Bad Mood
Bad Mood
smoothSolver:  Solving for Ux, Initial residual = 0.100953, Final residual = 7.32245e-06, No Iterations 10
smoothSolver:  Solving for Uy, Initial residual = 0.623784, Final residual = 5.13783e-06, No Iterations 10
GAMG:  Solving for p, Initial residual = 0.0451864, Final residual = 0.00282425, No Iterations 3
time step continuity errors : sum local = 3.68278e-05, global = 3.08111e-07, cumulative = 2.08538e-07
GAMG:  Solving for p, Initial residual = 0.0164799, Final residual = 0.00115362, No Iterations 4
time step continuity errors : sum local = 1.46667e-05, global = -1.38189e-06, cumulative = -1.17336e-06
GAMG:  Solving for p, Initial residual = 0.00537074, Final residual = 0.000310278, No Iterations 4
time step continuity errors : sum local = 3.92862e-06, global = -1.36406e-07, cumulative = -1.30976e-06
GAMG:  Solving for p, Initial residual = 0.00254291, Final residual = 0.000161844, No Iterations 4
time step continuity errors : sum local = 2.04851e-06, global = 1.93998e-07, cumulative = -1.11576e-06
GAMG:  Solving for p, Initial residual = 0.0014329, Final residual = 9.86594e-07, No Iterations 12
time step continuity errors : sum local = 1.25063e-08, global = 7.90234e-10, cumulative = -1.11497e-06
ExecutionTime = 0.01 s  ClockTime = 0 s

Time = 0.03

Courant Number mean: 0.079071 max: 0.111883
Bad Mood
Bad Mood
smoothSolver:  Solving for Ux, Initial residual = 0.0280718, Final residual = 4.68484e-06, No Iterations 10
smoothSolver:  Solving for Uy, Initial residual = 0.211515, Final residual = 9.79842e-06, No Iterations 7
GAMG:  Solving for p, Initial residual = 0.00674342, Final residual = 0.0006548, No Iterations 2
time step continuity errors : sum local = 8.26664e-06, global = 4.69578e-07, cumulative = -6.45395e-07
GAMG:  Solving for p, Initial residual = 0.00195823, Final residual = 0.00019385, No Iterations 4
time step continuity errors : sum local = 2.43573e-06, global = -2.77948e-07, cumulative = -9.23343e-07
GAMG:  Solving for p, Initial residual = 0.000640023, Final residual = 4.76558e-05, No Iterations 3
time step continuity errors : sum local = 5.9894e-07, global = -1.11566e-08, cumulative = -9.345e-07
GAMG:  Solving for p, Initial residual = 0.000388739, Final residual = 2.91818e-05, No Iterations 4
time step continuity errors : sum local = 3.66968e-07, global = 3.93972e-08, cumulative = -8.95103e-07
GAMG:  Solving for p, Initial residual = 0.000224183, Final residual = 5.85061e-07, No Iterations 10
time step continuity errors : sum local = 7.36001e-09, global = 4.67769e-10, cumulative = -8.94635e-07
ExecutionTime = 0.01 s  ClockTime = 0 s

Time = 0.04

Courant Number mean: 0.0763249 max: 0.111111
Bad Mood
Bad Mood
smoothSolver:  Solving for Ux, Initial residual = 0.0124425, Final residual = 7.39648e-06, No Iterations 9
smoothSolver:  Solving for Uy, Initial residual = 0.142547, Final residual = 4.55354e-06, No Iterations 9
GAMG:  Solving for p, Initial residual = 0.00251046, Final residual = 0.000242369, No Iterations 3
time step continuity errors : sum local = 3.04368e-06, global = -3.41283e-07, cumulative = -1.23592e-06
GAMG:  Solving for p, Initial residual = 0.000514594, Final residual = 3.43204e-05, No Iterations 4
time step continuity errors : sum local = 4.30181e-07, global = -4.92927e-08, cumulative = -1.28521e-06
GAMG:  Solving for p, Initial residual = 0.000223247, Final residual = 1.69743e-05, No Iterations 4
time step continuity errors : sum local = 2.12844e-07, global = 2.35021e-08, cumulative = -1.26171e-06
GAMG:  Solving for p, Initial residual = 0.00014872, Final residual = 1.33031e-05, No Iterations 4
time step continuity errors : sum local = 1.66847e-07, global = 1.37453e-08, cumulative = -1.24796e-06
GAMG:  Solving for p, Initial residual = 8.35425e-05, Final residual = 6.5266e-07, No Iterations 8
time step continuity errors : sum local = 8.18668e-09, global = 5.05866e-10, cumulative = -1.24746e-06
ExecutionTime = 0.02 s  ClockTime = 0 s

Time = 0.05

Courant Number mean: 0.0745247 max: 0.109495
Bad Mood
Bad Mood
smoothSolver:  Solving for Ux, Initial residual = 0.00834586, Final residual = 5.64788e-06, No Iterations 9
smoothSolver:  Solving for Uy, Initial residual = 0.234345, Final residual = 7.81473e-06, No Iterations 9
GAMG:  Solving for p, Initial residual = 0.00111318, Final residual = 8.77446e-05, No Iterations 3
time step continuity errors : sum local = 1.09974e-06, global = -5.55353e-08, cumulative = -1.30299e-06
GAMG:  Solving for p, Initial residual = 0.000252358, Final residual = 2.13644e-05, No Iterations 4
time step continuity errors : sum local = 2.67566e-07, global = -3.11258e-08, cumulative = -1.33412e-06
GAMG:  Solving for p, Initial residual = 8.54451e-05, Final residual = 6.57894e-06, No Iterations 3
time step continuity errors : sum local = 8.24146e-08, global = -4.28093e-09, cumulative = -1.3384e-06
GAMG:  Solving for p, Initial residual = 5.74355e-05, Final residual = 4.99451e-06, No Iterations 4
time step continuity errors : sum local = 6.25728e-08, global = 6.67554e-09, cumulative = -1.33172e-06
GAMG:  Solving for p, Initial residual = 3.4792e-05, Final residual = 8.95341e-07, No Iterations 6
time step continuity errors : sum local = 1.12178e-08, global = 6.98109e-10, cumulative = -1.33103e-06
ExecutionTime = 0.02 s  ClockTime = 0 s

Time = 0.06

Courant Number mean: 0.0732029 max: 0.10784
Bad Mood
Bad Mood
smoothSolver:  Solving for Ux, Initial residual = 0.00628349, Final residual = 9.85169e-06, No Iterations 8
smoothSolver:  Solving for Uy, Initial residual = 0.365344, Final residual = 3.99237e-06, No Iterations 10
GAMG:  Solving for p, Initial residual = 0.000601595, Final residual = 5.03259e-05, No Iterations 2
time step continuity errors : sum local = 6.30265e-07, global = 9.62416e-09, cumulative = -1.3214e-06
GAMG:  Solving for p, Initial residual = 0.000229146, Final residual = 2.11855e-05, No Iterations 4
time step continuity errors : sum local = 2.65215e-07, global = -2.59151e-08, cumulative = -1.34732e-06
GAMG:  Solving for p, Initial residual = 5.26865e-05, Final residual = 3.64566e-06, No Iterations 4
time step continuity errors : sum local = 4.56472e-08, global = -3.65996e-09, cumulative = -1.35098e-06
GAMG:  Solving for p, Initial residual = 2.35771e-05, Final residual = 1.52191e-06, No Iterations 4
time step continuity errors : sum local = 1.9057e-08, global = 2.05776e-09, cumulative = -1.34892e-06
GAMG:  Solving for p, Initial residual = 1.52014e-05, Final residual = 6.96536e-07, No Iterations 5
time step continuity errors : sum local = 8.72211e-09, global = 5.41302e-10, cumulative = -1.34838e-06
ExecutionTime = 0.03 s  ClockTime = 0 s

Time = 0.07

Courant Number mean: 0.0721818 max: 0.106421
Bad Mood
Bad Mood
smoothSolver:  Solving for Ux, Initial residual = 0.00496046, Final residual = 7.93181e-06, No Iterations 8
smoothSolver:  Solving for Uy, Initial residual = 0.126948, Final residual = 4.0761e-06, No Iterations 9
GAMG:  Solving for p, Initial residual = 0.000408505, Final residual = 2.55942e-05, No Iterations 4
time step continuity errors : sum local = 3.20399e-07, global = 2.13265e-08, cumulative = -1.32705e-06
GAMG:  Solving for p, Initial residual = 0.000184316, Final residual = 1.36667e-05, No Iterations 5
time step continuity errors : sum local = 1.71039e-07, global = -1.60943e-08, cumulative = -1.34315e-06
GAMG:  Solving for p, Initial residual = 4.23373e-05, Final residual = 3.72863e-06, No Iterations 4
time step continuity errors : sum local = 4.66711e-08, global = -4.32477e-09, cumulative = -1.34747e-06
GAMG:  Solving for p, Initial residual = 1.3008e-05, Final residual = 1.04242e-06, No Iterations 2
time step continuity errors : sum local = 1.30486e-08, global = 1.20347e-09, cumulative = -1.34627e-06
GAMG:  Solving for p, Initial residual = 8.42429e-06, Final residual = 6.7568e-07, No Iterations 4
time step continuity errors : sum local = 8.45802e-09, global = 5.38121e-10, cumulative = -1.34573e-06
ExecutionTime = 0.03 s  ClockTime = 0 s

Time = 0.08

Courant Number mean: 0.071371 max: 0.105231
Bad Mood
Bad Mood
smoothSolver:  Solving for Ux, Initial residual = 0.00398881, Final residual = 6.42938e-06, No Iterations 8
smoothSolver:  Solving for Uy, Initial residual = 0.0434504, Final residual = 3.6271e-06, No Iterations 8
GAMG:  Solving for p, Initial residual = 0.000301567, Final residual = 2.89579e-05, No Iterations 4
time step continuity errors : sum local = 3.6241e-07, global = 2.99208e-08, cumulative = -1.31581e-06
GAMG:  Solving for p, Initial residual = 0.000158582, Final residual = 1.26857e-05, No Iterations 5
time step continuity errors : sum local = 1.5873e-07, global = -1.46778e-08, cumulative = -1.33049e-06
GAMG:  Solving for p, Initial residual = 3.71821e-05, Final residual = 2.35171e-06, No Iterations 5
time step continuity errors : sum local = 2.94296e-08, global = -2.69097e-09, cumulative = -1.33318e-06
GAMG:  Solving for p, Initial residual = 1.02944e-05, Final residual = 8.15275e-07, No Iterations 2
time step continuity errors : sum local = 1.02028e-08, global = 7.59e-10, cumulative = -1.33242e-06
GAMG:  Solving for p, Initial residual = 5.09201e-06, Final residual = 6.57555e-07, No Iterations 3
time step continuity errors : sum local = 8.22914e-09, global = 5.43987e-10, cumulative = -1.33187e-06
ExecutionTime = 0.03 s  ClockTime = 0 s

Time = 0.09

Courant Number mean: 0.0707199 max: 0.104242
Bad Mood
Bad Mood
smoothSolver:  Solving for Ux, Initial residual = 0.0032288, Final residual = 5.22205e-06, No Iterations 8
smoothSolver:  Solving for Uy, Initial residual = 0.0223122, Final residual = 8.95891e-06, No Iterations 6
GAMG:  Solving for p, Initial residual = 0.000238942, Final residual = 1.55921e-05, No Iterations 5
time step continuity errors : sum local = 1.95098e-07, global = 1.67201e-08, cumulative = -1.31515e-06
GAMG:  Solving for p, Initial residual = 0.000129753, Final residual = 1.19042e-05, No Iterations 5
time step continuity errors : sum local = 1.4893e-07, global = -1.36051e-08, cumulative = -1.32876e-06
GAMG:  Solving for p, Initial residual = 3.15783e-05, Final residual = 2.03398e-06, No Iterations 5
time step continuity errors : sum local = 2.54492e-08, global = -2.31941e-09, cumulative = -1.33108e-06
GAMG:  Solving for p, Initial residual = 8.6255e-06, Final residual = 8.52015e-07, No Iterations 2
time step continuity errors : sum local = 1.06607e-08, global = 5.51749e-10, cumulative = -1.33053e-06
GAMG:  Solving for p, Initial residual = 3.86717e-06, Final residual = 8.26377e-07, No Iterations 2
time step continuity errors : sum local = 1.03401e-08, global = 6.93597e-10, cumulative = -1.32983e-06
ExecutionTime = 0.03 s  ClockTime = 0 s

Time = 0.1

Courant Number mean: 0.0701953 max: 0.103432
Bad Mood
Bad Mood
smoothSolver:  Solving for Ux, Initial residual = 0.00261866, Final residual = 9.3498e-06, No Iterations 7
smoothSolver:  Solving for Uy, Initial residual = 0.0220762, Final residual = 4.23611e-06, No Iterations 7
GAMG:  Solving for p, Initial residual = 0.000193646, Final residual = 1.39231e-05, No Iterations 5
time step continuity errors : sum local = 1.7419e-07, global = 1.52034e-08, cumulative = -1.31463e-06
GAMG:  Solving for p, Initial residual = 0.000109911, Final residual = 1.03975e-05, No Iterations 5
time step continuity errors : sum local = 1.30066e-07, global = -1.16209e-08, cumulative = -1.32625e-06
GAMG:  Solving for p, Initial residual = 2.70254e-05, Final residual = 1.86537e-06, No Iterations 5
time step continuity errors : sum local = 2.33365e-08, global = -1.97227e-09, cumulative = -1.32822e-06
GAMG:  Solving for p, Initial residual = 7.5618e-06, Final residual = 6.00479e-07, No Iterations 2
time step continuity errors : sum local = 7.5124e-09, global = 3.82829e-10, cumulative = -1.32784e-06
GAMG:  Solving for p, Initial residual = 3.09813e-06, Final residual = 9.7681e-07, No Iterations 1
time step continuity errors : sum local = 1.22207e-08, global = 8.22873e-10, cumulative = -1.32702e-06
ExecutionTime = 0.04 s  ClockTime = 0 s

Time = 0.11

Courant Number mean: 0.0697723 max: 0.102773
numProcs 2 nprocs 2
Using all 2 for LAMMPS simulation
LAMMPS (14 May 2016)
fix		shear all deform 1 xy erate 0.010359 remap v flip yes units boxfix		shear all deform 1 xy erate 0.010331 remap v flip yes units boxCreated triclinic box = (0 0 0) to (20 20 20) with tilt (0 0 0)
  1 by 1 by 2 MPI processor grid
Read molecule polymer:
  15 atoms with 2 types
  14 bonds with 3 types
  0 angles with 0 types
  0 dihedrals with 0 types
  0 impropers with 0 types
Created 24000 atoms
Created 0 atoms
24000 atoms in group water
0 atoms in group polymer
Setting atom values ...
  24000 settings made for type
WARNING: Resetting reneighboring criteria during minimization (../min.cpp:168)
WARNING: Use special bonds = 0,1,1 with bond style fene (../bond_fene.cpp:188)
Neighbor list info ...
  1 neighbor list requests
  update every 1 steps, delay 0 steps, check yes
  max neighbors/atom: 2000, page size: 100000
  master list distance cutoff = 2
  ghost atom cutoff = 5
  binsize = 1, bins = 20 20 20
Setting up cg style minimization ...
  Unit style: lj
Memory usage per processor = 24.0367 Mbytes
Step Temp E_pair E_mol TotEng Press 
       0            0    7.8441595            0    7.8441595    18.844752 
      36            0    4.2162452            0    4.2162452    16.613297 
Loop time of 2.54025 on 2 procs for 36 steps with 24000 atoms

100.0% CPU use with 2 MPI tasks x no OpenMP threads

Minimization stats:
  Stopping criterion = energy tolerance
  Energy initial, next-to-last, final = 
         7.84415951736      4.21627648972       4.2162452417
  Force two-norm initial, final = 6804.29 4029.97
  Force max component initial, final = 159.709 92.4734
  Final line search alpha, max atom move = 1.50171e-05 0.00138868
  Iterations, force evaluations = 36 122

MPI task timing breakdown:
Section |  min time  |  avg time  |  max time  |%varavg| %total
---------------------------------------------------------------
Pair    | 1.9996     | 2.0177     | 2.0358     |   1.3 | 79.43
Bond    | 0.00012207 | 0.00013447 | 0.00014687 |   0.1 |  0.01
Neigh   | 0.10803    | 0.10814    | 0.10825    |   0.0 |  4.26
Comm    | 0.35101    | 0.36877    | 0.38654    |   2.9 | 14.52
Output  | 0          | 0          | 0          |   0.0 |  0.00
Modify  | 0          | 0          | 0          |   0.0 |  0.00
Other   |            | 0.04547    |            |       |  1.79

Nlocal:    12000 ave 12120 max 11880 min
Histogram: 1 0 0 0 0 0 0 0 0 1
Nghost:    41964 ave 42084 max 41844 min
Histogram: 1 0 0 0 0 0 0 0 0 1
Neighs:    600304 ave 609048 max 591559 min
Histogram: 1 0 0 0 0 0 0 0 0 1

Total # of neighbors = 1200607
Ave neighs/atom = 50.0253
Ave special neighs/atom = 0
Neighbor list builds = 2
Dangerous builds not checked
WARNING: Use special bonds = 0,1,1 with bond style fene (../bond_fene.cpp:188)
Neighbor list info ...
  1 neighbor list requests
  update every 6 steps, delay 0 steps, check no
  max neighbors/atom: 2000, page size: 100000
  master list distance cutoff = 2
  ghost atom cutoff = 5
  binsize = 1, bins = 20 20 20
Setting up Verlet run ...
  Unit style  : lj
  Current step: 36
  Time step   : 0.01
Memory usage per processor = 19.052 Mbytes
Step Temp E_pair E_mol TotEng Press 
      36            0    4.2162452            0    4.2162452    16.711674 
Loop time of 2.02656e-06 on 2 procs for 0 steps with 24000 atoms

0.0% CPU use with 2 MPI tasks x no OpenMP threads

MPI task timing breakdown:
Section |  min time  |  avg time  |  max time  |%varavg| %total
---------------------------------------------------------------
Pair    | 0          | 0          | 0          |   0.0 |  0.00
Bond    | 0          | 0          | 0          |   0.0 |  0.00
Neigh   | 0          | 0          | 0          |   0.0 |  0.00
Comm    | 0          | 0          | 0          |   0.0 |  0.00
Output  | 0          | 0          | 0          |   0.0 |  0.00
Modify  | 0          | 0          | 0          |   0.0 |  0.00
Other   |            | 2.027e-06  |            |       |100.00

Nlocal:    12000 ave 12101 max 11899 min
Histogram: 1 0 0 0 0 0 0 0 0 1
Nghost:    41971 ave 42072 max 41870 min
Histogram: 1 0 0 0 0 0 0 0 0 1
Neighs:    599470 ave 607121 max 591820 min
Histogram: 1 0 0 0 0 0 0 0 0 1

Total # of neighbors = 1198941
Ave neighs/atom = 49.9559
Ave special neighs/atom = 0
Neighbor list builds = 0
Dangerous builds not checked
WARNING: Use special bonds = 0,1,1 with bond style fene (../bond_fene.cpp:188)
Setting up Verlet run ...
  Unit style  : lj
  Current step: 36
  Time step   : 0.005
Memory usage per processor = 19.0672 Mbytes
Step Temp Press Pxy visc vave 
      36   0.44450588    17.950247   0.14274372   -1.4274372            0 
Loop time of 2.02656e-06 on 2 procs for 0 steps with 24000 atoms

0.0% CPU use with 2 MPI tasks x no OpenMP threads

MPI task timing breakdown:
Section |  min time  |  avg time  |  max time  |%varavg| %total
---------------------------------------------------------------
Pair    | 0          | 0          | 0          |   0.0 |  0.00
Bond    | 0          | 0          | 0          |   0.0 |  0.00
Neigh   | 0          | 0          | 0          |   0.0 |  0.00
Comm    | 0          | 0          | 0          |   0.0 |  0.00
Output  | 0          | 0          | 0          |   0.0 |  0.00
Modify  | 0          | 0          | 0          |   0.0 |  0.00
Other   |            | 2.027e-06  |            |       |100.00

Nlocal:    12000 ave 12101 max 11899 min
Histogram: 1 0 0 0 0 0 0 0 0 1
Nghost:    41971 ave 42072 max 41870 min
Histogram: 1 0 0 0 0 0 0 0 0 1
Neighs:    599470 ave 607121 max 591820 min
Histogram: 1 0 0 0 0 0 0 0 0 1

Total # of neighbors = 1198941
Ave neighs/atom = 49.9559
Ave special neighs/atom = 0
Neighbor list builds = 0
Dangerous builds not checked
0000Total wall time: 0:00:02
numProcs 2 nprocs 2
Using all 2 for LAMMPS simulation
LAMMPS (14 May 2016)
fix		shear all deform 1 xy erate 0.010331 remap v flip yes units boxfix		shear all deform 1 xy erate 0.010332 remap v flip yes units boxCreated triclinic box = (0 0 0) to (20 20 20) with tilt (0 0 0)
  1 by 1 by 2 MPI processor grid
Read molecule polymer:
  15 atoms with 2 types
  14 bonds with 3 types
  0 angles with 0 types
  0 dihedrals with 0 types
  0 impropers with 0 types
Created 24000 atoms
Created 0 atoms
24000 atoms in group water
0 atoms in group polymer
Setting atom values ...
  24000 settings made for type
WARNING: Resetting reneighboring criteria during minimization (../min.cpp:168)
WARNING: Use special bonds = 0,1,1 with bond style fene (../bond_fene.cpp:188)
Neighbor list info ...
  1 neighbor list requests
  update every 1 steps, delay 0 steps, check yes
  max neighbors/atom: 2000, page size: 100000
  master list distance cutoff = 2
  ghost atom cutoff = 5
  binsize = 1, bins = 20 20 20
Setting up cg style minimization ...
  Unit style: lj
Memory usage per processor = 24.0367 Mbytes
Step Temp E_pair E_mol TotEng Press 
       0            0    7.8441595            0    7.8441595    18.844752 
      36            0    4.2162452            0    4.2162452    16.613297 
Loop time of 2.73808 on 2 procs for 36 steps with 24000 atoms

99.9% CPU use with 2 MPI tasks x no OpenMP threads

Minimization stats:
  Stopping criterion = energy tolerance
  Energy initial, next-to-last, final = 
         7.84415951736      4.21627648972       4.2162452417
  Force two-norm initial, final = 6804.29 4029.97
  Force max component initial, final = 159.709 92.4734
  Final line search alpha, max atom move = 1.50171e-05 0.00138868
  Iterations, force evaluations = 36 122

MPI task timing breakdown:
Section |  min time  |  avg time  |  max time  |%varavg| %total
---------------------------------------------------------------
Pair    | 1.9893     | 2.1184     | 2.2475     |   8.9 | 77.37
Bond    | 0.00014448 | 0.00015533 | 0.00016618 |   0.1 |  0.01
Neigh   | 0.11113    | 0.11122    | 0.11132    |   0.0 |  4.06
Comm    | 0.33168    | 0.46052    | 0.58936    |  19.0 | 16.82
Output  | 0          | 0          | 0          |   0.0 |  0.00
Modify  | 0          | 0          | 0          |   0.0 |  0.00
Other   |            | 0.04779    |            |       |  1.75

Nlocal:    12000 ave 12120 max 11880 min
Histogram: 1 0 0 0 0 0 0 0 0 1
Nghost:    41964 ave 42084 max 41844 min
Histogram: 1 0 0 0 0 0 0 0 0 1
Neighs:    600304 ave 609048 max 591559 min
Histogram: 1 0 0 0 0 0 0 0 0 1

Total # of neighbors = 1200607
Ave neighs/atom = 50.0253
Ave special neighs/atom = 0
Neighbor list builds = 2
Dangerous builds not checked
WARNING: Use special bonds = 0,1,1 with bond style fene (../bond_fene.cpp:188)
Neighbor list info ...
  1 neighbor list requests
  update every 6 steps, delay 0 steps, check no
  max neighbors/atom: 2000, page size: 100000
  master list distance cutoff = 2
  ghost atom cutoff = 5
  binsize = 1, bins = 20 20 20
Setting up Verlet run ...
  Unit style  : lj
  Current step: 36
  Time step   : 0.01
Memory usage per processor = 19.052 Mbytes
Step Temp E_pair E_mol TotEng Press 
      36            0    4.2162452            0    4.2162452    16.711674 
Loop time of 2.02656e-06 on 2 procs for 0 steps with 24000 atoms

0.0% CPU use with 2 MPI tasks x no OpenMP threads

MPI task timing breakdown:
Section |  min time  |  avg time  |  max time  |%varavg| %total
---------------------------------------------------------------
Pair    | 0          | 0          | 0          |   0.0 |  0.00
Bond    | 0          | 0          | 0          |   0.0 |  0.00
Neigh   | 0          | 0          | 0          |   0.0 |  0.00
Comm    | 0          | 0          | 0          |   0.0 |  0.00
Output  | 0          | 0          | 0          |   0.0 |  0.00
Modify  | 0          | 0          | 0          |   0.0 |  0.00
Other   |            | 2.027e-06  |            |       |100.00

Nlocal:    12000 ave 12101 max 11899 min
Histogram: 1 0 0 0 0 0 0 0 0 1
Nghost:    41971 ave 42072 max 41870 min
Histogram: 1 0 0 0 0 0 0 0 0 1
Neighs:    599470 ave 607121 max 591820 min
Histogram: 1 0 0 0 0 0 0 0 0 1

Total # of neighbors = 1198941
Ave neighs/atom = 49.9559
Ave special neighs/atom = 0
Neighbor list builds = 0
Dangerous builds not checked
WARNING: Use special bonds = 0,1,1 with bond style fene (../bond_fene.cpp:188)
Setting up Verlet run ...
  Unit style  : lj
  Current step: 36
  Time step   : 0.005
Memory usage per processor = 19.0672 Mbytes
Step Temp Press Pxy visc vave 
      36   0.44450588    17.950247   0.14274372   -1.4274372            0 
Loop time of 2.14577e-06 on 2 procs for 0 steps with 24000 atoms

0.0% CPU use with 2 MPI tasks x no OpenMP threads

MPI task timing breakdown:
Section |  min time  |  avg time  |  max time  |%varavg| %total
---------------------------------------------------------------
Pair    | 0          | 0          | 0          |   0.0 |  0.00
Bond    | 0          | 0          | 0          |   0.0 |  0.00
Neigh   | 0          | 0          | 0          |   0.0 |  0.00
Comm    | 0          | 0          | 0          |   0.0 |  0.00
Output  | 0          | 0          | 0          |   0.0 |  0.00
Modify  | 0          | 0          | 0          |   0.0 |  0.00
Other   |            | 2.146e-06  |            |       |100.00

Nlocal:    12000 ave 12101 max 11899 min
Histogram: 1 0 0 0 0 0 0 0 0 1
Nghost:    41971 ave 42072 max 41870 min
Histogram: 1 0 0 0 0 0 0 0 0 1
Neighs:    599470 ave 607121 max 591820 min
Histogram: 1 0 0 0 0 0 0 0 0 1

Total # of neighbors = 1198941
Ave neighs/atom = 49.9559
Ave special neighs/atom = 0
Neighbor list builds = 0
Dangerous builds not checked
0000Total wall time: 0:00:03
numProcs 2 nprocs 2
Using all 2 for LAMMPS simulation
LAMMPS (14 May 2016)
fix		shear all deform 1 xy erate 0.010334 remap v flip yes units boxfix		shear all deform 1 xy erate 0.010331 remap v flip yes units boxCreated triclinic box = (0 0 0) to (20 20 20) with tilt (0 0 0)
  1 by 1 by 2 MPI processor grid
Read molecule polymer:
  15 atoms with 2 types
  14 bonds with 3 types
  0 angles with 0 types
  0 dihedrals with 0 types
  0 impropers with 0 types
Created 24000 atoms
Created 0 atoms
24000 atoms in group water
0 atoms in group polymer
Setting atom values ...
  24000 settings made for type
WARNING: Resetting reneighboring criteria during minimization (../min.cpp:168)
WARNING: Use special bonds = 0,1,1 with bond style fene (../bond_fene.cpp:188)
Neighbor list info ...
  1 neighbor list requests
  update every 1 steps, delay 0 steps, check yes
  max neighbors/atom: 2000, page size: 100000
  master list distance cutoff = 2
  ghost atom cutoff = 5
  binsize = 1, bins = 20 20 20
Setting up cg style minimization ...
  Unit style: lj
Memory usage per processor = 24.0367 Mbytes
Step Temp E_pair E_mol TotEng Press 
       0            0    7.8441595            0    7.8441595    18.844752 
      36            0    4.2162452            0    4.2162452    16.613297 
Loop time of 2.23421 on 2 procs for 36 steps with 24000 atoms

100.0% CPU use with 2 MPI tasks x no OpenMP threads

Minimization stats:
  Stopping criterion = energy tolerance
  Energy initial, next-to-last, final = 
         7.84415951736      4.21627648972       4.2162452417
  Force two-norm initial, final = 6804.29 4029.97
  Force max component initial, final = 159.709 92.4734
  Final line search alpha, max atom move = 1.50171e-05 0.00138868
  Iterations, force evaluations = 36 122

MPI task timing breakdown:
Section |  min time  |  avg time  |  max time  |%varavg| %total
---------------------------------------------------------------
Pair    | 1.793      | 1.8106     | 1.8281     |   1.3 | 81.04
Bond    | 9.0599e-05 | 0.0001061  | 0.00012159 |   0.2 |  0.00
Neigh   | 0.10429    | 0.10432    | 0.10434    |   0.0 |  4.67
Comm    | 0.26057    | 0.2781     | 0.29563    |   3.3 | 12.45
Output  | 0          | 0          | 0          |   0.0 |  0.00
Modify  | 0          | 0          | 0          |   0.0 |  0.00
Other   |            | 0.04111    |            |       |  1.84

Nlocal:    12000 ave 12120 max 11880 min
Histogram: 1 0 0 0 0 0 0 0 0 1
Nghost:    41964 ave 42084 max 41844 min
Histogram: 1 0 0 0 0 0 0 0 0 1
Neighs:    600304 ave 609048 max 591559 min
Histogram: 1 0 0 0 0 0 0 0 0 1

Total # of neighbors = 1200607
Ave neighs/atom = 50.0253
Ave special neighs/atom = 0
Neighbor list builds = 2
Dangerous builds not checked
WARNING: Use special bonds = 0,1,1 with bond style fene (../bond_fene.cpp:188)
Neighbor list info ...
  1 neighbor list requests
  update every 6 steps, delay 0 steps, check no
  max neighbors/atom: 2000, page size: 100000
  master list distance cutoff = 2
  ghost atom cutoff = 5
  binsize = 1, bins = 20 20 20
Setting up Verlet run ...
  Unit style  : lj
  Current step: 36
  Time step   : 0.01
Memory usage per processor = 19.052 Mbytes
Step Temp E_pair E_mol TotEng Press 
      36            0    4.2162452            0    4.2162452    16.711674 
Loop time of 2.38419e-06 on 2 procs for 0 steps with 24000 atoms

0.0% CPU use with 2 MPI tasks x no OpenMP threads

MPI task timing breakdown:
Section |  min time  |  avg time  |  max time  |%varavg| %total
---------------------------------------------------------------
Pair    | 0          | 0          | 0          |   0.0 |  0.00
Bond    | 0          | 0          | 0          |   0.0 |  0.00
Neigh   | 0          | 0          | 0          |   0.0 |  0.00
Comm    | 0          | 0          | 0          |   0.0 |  0.00
Output  | 0          | 0          | 0          |   0.0 |  0.00
Modify  | 0          | 0          | 0          |   0.0 |  0.00
Other   |            | 2.384e-06  |            |       |100.00

Nlocal:    12000 ave 12101 max 11899 min
Histogram: 1 0 0 0 0 0 0 0 0 1
Nghost:    41971 ave 42072 max 41870 min
Histogram: 1 0 0 0 0 0 0 0 0 1
Neighs:    599470 ave 607121 max 591820 min
Histogram: 1 0 0 0 0 0 0 0 0 1

Total # of neighbors = 1198941
Ave neighs/atom = 49.9559
Ave special neighs/atom = 0
Neighbor list builds = 0
Dangerous builds not checked
WARNING: Use special bonds = 0,1,1 with bond style fene (../bond_fene.cpp:188)
Setting up Verlet run ...
  Unit style  : lj
  Current step: 36
  Time step   : 0.005
Memory usage per processor = 19.0672 Mbytes
Step Temp Press Pxy visc vave 
      36   0.44450588    17.950247   0.14274372   -1.4274372            0 
Loop time of 1.78814e-06 on 2 procs for 0 steps with 24000 atoms

0.0% CPU use with 2 MPI tasks x no OpenMP threads

MPI task timing breakdown:
Section |  min time  |  avg time  |  max time  |%varavg| %total
---------------------------------------------------------------
Pair    | 0          | 0          | 0          |   0.0 |  0.00
Bond    | 0          | 0          | 0          |   0.0 |  0.00
Neigh   | 0          | 0          | 0          |   0.0 |  0.00
Comm    | 0          | 0          | 0          |   0.0 |  0.00
Output  | 0          | 0          | 0          |   0.0 |  0.00
Modify  | 0          | 0          | 0          |   0.0 |  0.00
Other   |            | 1.788e-06  |            |       |100.00

Nlocal:    12000 ave 12101 max 11899 min
Histogram: 1 0 0 0 0 0 0 0 0 1
Nghost:    41971 ave 42072 max 41870 min
Histogram: 1 0 0 0 0 0 0 0 0 1
Neighs:    599470 ave 607121 max 591820 min
Histogram: 1 0 0 0 0 0 0 0 0 1

Total # of neighbors = 1198941
Ave neighs/atom = 49.9559
Ave special neighs/atom = 0
Neighbor list builds = 0
Dangerous builds not checked
0000Total wall time: 0:00:02
numProcs 2 nprocs 2
Using all 2 for LAMMPS simulation
LAMMPS (14 May 2016)
fix		shear all deform 1 xy erate 0.010331 remap v flip yes units boxfix		shear all deform 1 xy erate 0.010332 remap v flip yes units boxCreated triclinic box = (0 0 0) to (20 20 20) with tilt (0 0 0)
  1 by 1 by 2 MPI processor grid
Read molecule polymer:
  15 atoms with 2 types
  14 bonds with 3 types
  0 angles with 0 types
  0 dihedrals with 0 types
  0 impropers with 0 types
Created 24000 atoms
Created 0 atoms
24000 atoms in group water
0 atoms in group polymer
Setting atom values ...
  24000 settings made for type
WARNING: Resetting reneighboring criteria during minimization (../min.cpp:168)
WARNING: Use special bonds = 0,1,1 with bond style fene (../bond_fene.cpp:188)
Neighbor list info ...
  1 neighbor list requests
  update every 1 steps, delay 0 steps, check yes
  max neighbors/atom: 2000, page size: 100000
  master list distance cutoff = 2
  ghost atom cutoff = 5
  binsize = 1, bins = 20 20 20
Setting up cg style minimization ...
  Unit style: lj
Memory usage per processor = 24.0367 Mbytes
Step Temp E_pair E_mol TotEng Press 
       0            0    7.8441595            0    7.8441595    18.844752 
      36            0    4.2162452            0    4.2162452    16.613297 
Loop time of 2.15746 on 2 procs for 36 steps with 24000 atoms

99.9% CPU use with 2 MPI tasks x no OpenMP threads

Minimization stats:
  Stopping criterion = energy tolerance
  Energy initial, next-to-last, final = 
         7.84415951736      4.21627648972       4.2162452417
  Force two-norm initial, final = 6804.29 4029.97
  Force max component initial, final = 159.709 92.4734
  Final line search alpha, max atom move = 1.50171e-05 0.00138868
  Iterations, force evaluations = 36 122

MPI task timing breakdown:
Section |  min time  |  avg time  |  max time  |%varavg| %total
---------------------------------------------------------------
Pair    | 1.7149     | 1.7346     | 1.7543     |   1.5 | 80.40
Bond    | 9.2268e-05 | 0.0001148  | 0.00013733 |   0.2 |  0.01
Neigh   | 0.10165    | 0.10166    | 0.10168    |   0.0 |  4.71
Comm    | 0.26187    | 0.28191    | 0.30195    |   3.8 | 13.07
Output  | 0          | 0          | 0          |   0.0 |  0.00
Modify  | 0          | 0          | 0          |   0.0 |  0.00
Other   |            | 0.03919    |            |       |  1.82

Nlocal:    12000 ave 12120 max 11880 min
Histogram: 1 0 0 0 0 0 0 0 0 1
Nghost:    41964 ave 42084 max 41844 min
Histogram: 1 0 0 0 0 0 0 0 0 1
Neighs:    600304 ave 609048 max 591559 min
Histogram: 1 0 0 0 0 0 0 0 0 1

Total # of neighbors = 1200607
Ave neighs/atom = 50.0253
Ave special neighs/atom = 0
Neighbor list builds = 2
Dangerous builds not checked
WARNING: Use special bonds = 0,1,1 with bond style fene (../bond_fene.cpp:188)
Neighbor list info ...
  1 neighbor list requests
  update every 6 steps, delay 0 steps, check no
  max neighbors/atom: 2000, page size: 100000
  master list distance cutoff = 2
  ghost atom cutoff = 5
  binsize = 1, bins = 20 20 20
Setting up Verlet run ...
  Unit style  : lj
  Current step: 36
  Time step   : 0.01
Memory usage per processor = 19.052 Mbytes
Step Temp E_pair E_mol TotEng Press 
      36            0    4.2162452            0    4.2162452    16.711674 
Loop time of 2.14577e-06 on 2 procs for 0 steps with 24000 atoms

0.0% CPU use with 2 MPI tasks x no OpenMP threads

MPI task timing breakdown:
Section |  min time  |  avg time  |  max time  |%varavg| %total
---------------------------------------------------------------
Pair    | 0          | 0          | 0          |   0.0 |  0.00
Bond    | 0          | 0          | 0          |   0.0 |  0.00
Neigh   | 0          | 0          | 0          |   0.0 |  0.00
Comm    | 0          | 0          | 0          |   0.0 |  0.00
Output  | 0          | 0          | 0          |   0.0 |  0.00
Modify  | 0          | 0          | 0          |   0.0 |  0.00
Other   |            | 2.146e-06  |            |       |100.00

Nlocal:    12000 ave 12101 max 11899 min
Histogram: 1 0 0 0 0 0 0 0 0 1
Nghost:    41971 ave 42072 max 41870 min
Histogram: 1 0 0 0 0 0 0 0 0 1
Neighs:    599470 ave 607121 max 591820 min
Histogram: 1 0 0 0 0 0 0 0 0 1

Total # of neighbors = 1198941
Ave neighs/atom = 49.9559
Ave special neighs/atom = 0
Neighbor list builds = 0
Dangerous builds not checked
WARNING: Use special bonds = 0,1,1 with bond style fene (../bond_fene.cpp:188)
Setting up Verlet run ...
  Unit style  : lj
  Current step: 36
  Time step   : 0.005
Memory usage per processor = 19.0672 Mbytes
Step Temp Press Pxy visc vave 
      36   0.44450588    17.950247   0.14274372   -1.4274372            0 
Loop time of 1.66893e-06 on 2 procs for 0 steps with 24000 atoms

0.0% CPU use with 2 MPI tasks x no OpenMP threads

MPI task timing breakdown:
Section |  min time  |  avg time  |  max time  |%varavg| %total
---------------------------------------------------------------
Pair    | 0          | 0          | 0          |   0.0 |  0.00
Bond    | 0          | 0          | 0          |   0.0 |  0.00
Neigh   | 0          | 0          | 0          |   0.0 |  0.00
Comm    | 0          | 0          | 0          |   0.0 |  0.00
Output  | 0          | 0          | 0          |   0.0 |  0.00
Modify  | 0          | 0          | 0          |   0.0 |  0.00
Other   |            | 1.669e-06  |            |       |100.00

Nlocal:    12000 ave 12101 max 11899 min
Histogram: 1 0 0 0 0 0 0 0 0 1
Nghost:    41971 ave 42072 max 41870 min
Histogram: 1 0 0 0 0 0 0 0 0 1
Neighs:    599470 ave 607121 max 591820 min
Histogram: 1 0 0 0 0 0 0 0 0 1

Total # of neighbors = 1198941
Ave neighs/atom = 49.9559
Ave special neighs/atom = 0
Neighbor list builds = 0
Dangerous builds not checked
0000Total wall time: 0:00:02
numProcs 2 nprocs 2
Using all 2 for LAMMPS simulation
LAMMPS (14 May 2016)
fix		shear all deform 1 xy erate 0.010332 remap v flip yes units boxfix		shear all deform 1 xy erate 0.010332 remap v flip yes units boxCreated triclinic box = (0 0 0) to (20 20 20) with tilt (0 0 0)
  1 by 1 by 2 MPI processor grid
Read molecule polymer:
  15 atoms with 2 types
  14 bonds with 3 types
  0 angles with 0 types
  0 dihedrals with 0 types
  0 impropers with 0 types
Created 24000 atoms
Created 0 atoms
24000 atoms in group water
0 atoms in group polymer
Setting atom values ...
  24000 settings made for type
WARNING: Resetting reneighboring criteria during minimization (../min.cpp:168)
WARNING: Use special bonds = 0,1,1 with bond style fene (../bond_fene.cpp:188)
Neighbor list info ...
  1 neighbor list requests
  update every 1 steps, delay 0 steps, check yes
  max neighbors/atom: 2000, page size: 100000
  master list distance cutoff = 2
  ghost atom cutoff = 5
  binsize = 1, bins = 20 20 20
Setting up cg style minimization ...
  Unit style: lj
Memory usage per processor = 24.0367 Mbytes
Step Temp E_pair E_mol TotEng Press 
       0            0    7.8441595            0    7.8441595    18.844752 
      36            0    4.2162452            0    4.2162452    16.613297 
Loop time of 2.39543 on 2 procs for 36 steps with 24000 atoms

99.7% CPU use with 2 MPI tasks x no OpenMP threads

Minimization stats:
  Stopping criterion = energy tolerance
  Energy initial, next-to-last, final = 
         7.84415951736      4.21627648972       4.2162452417
  Force two-norm initial, final = 6804.29 4029.97
  Force max component initial, final = 159.709 92.4734
  Final line search alpha, max atom move = 1.50171e-05 0.00138868
  Iterations, force evaluations = 36 122

MPI task timing breakdown:
Section |  min time  |  avg time  |  max time  |%varavg| %total
---------------------------------------------------------------
Pair    | 1.867      | 1.9152     | 1.9633     |   3.5 | 79.95
Bond    | 0.00012279 | 0.00014126 | 0.00015974 |   0.2 |  0.01
Neigh   | 0.10585    | 0.10586    | 0.10588    |   0.0 |  4.42
Comm    | 0.28343    | 0.33143    | 0.37943    |   8.3 | 13.84
Output  | 0          | 0          | 0          |   0.0 |  0.00
Modify  | 0          | 0          | 0          |   0.0 |  0.00
Other   |            | 0.04282    |            |       |  1.79

Nlocal:    12000 ave 12120 max 11880 min
Histogram: 1 0 0 0 0 0 0 0 0 1
Nghost:    41964 ave 42084 max 41844 min
Histogram: 1 0 0 0 0 0 0 0 0 1
Neighs:    600304 ave 609048 max 591559 min
Histogram: 1 0 0 0 0 0 0 0 0 1

Total # of neighbors = 1200607
Ave neighs/atom = 50.0253
Ave special neighs/atom = 0
Neighbor list builds = 2
Dangerous builds not checked
WARNING: Use special bonds = 0,1,1 with bond style fene (../bond_fene.cpp:188)
Neighbor list info ...
  1 neighbor list requests
  update every 6 steps, delay 0 steps, check no
  max neighbors/atom: 2000, page size: 100000
  master list distance cutoff = 2
  ghost atom cutoff = 5
  binsize = 1, bins = 20 20 20
Setting up Verlet run ...
  Unit style  : lj
  Current step: 36
  Time step   : 0.01
Memory usage per processor = 19.052 Mbytes
Step Temp E_pair E_mol TotEng Press 
      36            0    4.2162452            0    4.2162452    16.711674 
Loop time of 2.26498e-06 on 2 procs for 0 steps with 24000 atoms

0.0% CPU use with 2 MPI tasks x no OpenMP threads

MPI task timing breakdown:
Section |  min time  |  avg time  |  max time  |%varavg| %total
---------------------------------------------------------------
Pair    | 0          | 0          | 0          |   0.0 |  0.00
Bond    | 0          | 0          | 0          |   0.0 |  0.00
Neigh   | 0          | 0          | 0          |   0.0 |  0.00
Comm    | 0          | 0          | 0          |   0.0 |  0.00
Output  | 0          | 0          | 0          |   0.0 |  0.00
Modify  | 0          | 0          | 0          |   0.0 |  0.00
Other   |            | 2.265e-06  |            |       |100.00

Nlocal:    12000 ave 12101 max 11899 min
Histogram: 1 0 0 0 0 0 0 0 0 1
Nghost:    41971 ave 42072 max 41870 min
Histogram: 1 0 0 0 0 0 0 0 0 1
Neighs:    599470 ave 607121 max 591820 min
Histogram: 1 0 0 0 0 0 0 0 0 1

Total # of neighbors = 1198941
Ave neighs/atom = 49.9559
Ave special neighs/atom = 0
Neighbor list builds = 0
Dangerous builds not checked
WARNING: Use special bonds = 0,1,1 with bond style fene (../bond_fene.cpp:188)
Setting up Verlet run ...
  Unit style  : lj
  Current step: 36
  Time step   : 0.005
Memory usage per processor = 19.0672 Mbytes
Step Temp Press Pxy visc vave 
      36   0.44450588    17.950247   0.14274372   -1.4274372            0 
Loop time of 1.43051e-06 on 2 procs for 0 steps with 24000 atoms

0.0% CPU use with 2 MPI tasks x no OpenMP threads

MPI task timing breakdown:
Section |  min time  |  avg time  |  max time  |%varavg| %total
---------------------------------------------------------------
Pair    | 0          | 0          | 0          |   0.0 |  0.00
Bond    | 0          | 0          | 0          |   0.0 |  0.00
Neigh   | 0          | 0          | 0          |   0.0 |  0.00
Comm    | 0          | 0          | 0          |   0.0 |  0.00
Output  | 0          | 0          | 0          |   0.0 |  0.00
Modify  | 0          | 0          | 0          |   0.0 |  0.00
Other   |            | 1.431e-06  |            |       |100.00

Nlocal:    12000 ave 12101 max 11899 min
Histogram: 1 0 0 0 0 0 0 0 0 1
Nghost:    41971 ave 42072 max 41870 min
Histogram: 1 0 0 0 0 0 0 0 0 1
Neighs:    599470 ave 607121 max 591820 min
Histogram: 1 0 0 0 0 0 0 0 0 1

Total # of neighbors = 1198941
Ave neighs/atom = 49.9559
Ave special neighs/atom = 0
Neighbor list builds = 0
Dangerous builds not checked
0000Total wall time: 0:00:02
numProcs 2 nprocs 2
Using all 2 for LAMMPS simulation
LAMMPS (14 May 2016)
fix		shear all deform 1 xy erate 0.031033 remap v flip yes units boxfix		shear all deform 1 xy erate 0.030962 remap v flip yes units boxCreated triclinic box = (0 0 0) to (20 20 20) with tilt (0 0 0)
  1 by 1 by 2 MPI processor grid
Read molecule polymer:
  15 atoms with 2 types
  14 bonds with 3 types
  0 angles with 0 types
  0 dihedrals with 0 types
  0 impropers with 0 types
Created 24000 atoms
Created 0 atoms
24000 atoms in group water
0 atoms in group polymer
Setting atom values ...
  24000 settings made for type
WARNING: Resetting reneighboring criteria during minimization (../min.cpp:168)
WARNING: Use special bonds = 0,1,1 with bond style fene (../bond_fene.cpp:188)
Neighbor list info ...
  1 neighbor list requests
  update every 1 steps, delay 0 steps, check yes
  max neighbors/atom: 2000, page size: 100000
  master list distance cutoff = 2
  ghost atom cutoff = 5
  binsize = 1, bins = 20 20 20
Setting up cg style minimization ...
  Unit style: lj
Memory usage per processor = 24.0367 Mbytes
Step Temp E_pair E_mol TotEng Press 
       0            0    7.8441595            0    7.8441595    18.844752 
      36            0    4.2162452            0    4.2162452    16.613297 
Loop time of 2.80949 on 2 procs for 36 steps with 24000 atoms

99.8% CPU use with 2 MPI tasks x no OpenMP threads

Minimization stats:
  Stopping criterion = energy tolerance
  Energy initial, next-to-last, final = 
         7.84415951736      4.21627648972       4.2162452417
  Force two-norm initial, final = 6804.29 4029.97
  Force max component initial, final = 159.709 92.4734
  Final line search alpha, max atom move = 1.50171e-05 0.00138868
  Iterations, force evaluations = 36 122

MPI task timing breakdown:
Section |  min time  |  avg time  |  max time  |%varavg| %total
---------------------------------------------------------------
Pair    | 2.2257     | 2.2258     | 2.2259     |   0.0 | 79.22
Bond    | 0.0001483  | 0.00015974 | 0.00017118 |   0.1 |  0.01
Neigh   | 0.1231     | 0.12312    | 0.12315    |   0.0 |  4.38
Comm    | 0.41461    | 0.41472    | 0.41483    |   0.0 | 14.76
Output  | 0          | 0          | 0          |   0.0 |  0.00
Modify  | 0          | 0          | 0          |   0.0 |  0.00
Other   |            | 0.04571    |            |       |  1.63

Nlocal:    12000 ave 12120 max 11880 min
Histogram: 1 0 0 0 0 0 0 0 0 1
Nghost:    41964 ave 42084 max 41844 min
Histogram: 1 0 0 0 0 0 0 0 0 1
Neighs:    600304 ave 609048 max 591559 min
Histogram: 1 0 0 0 0 0 0 0 0 1

Total # of neighbors = 1200607
Ave neighs/atom = 50.0253
Ave special neighs/atom = 0
Neighbor list builds = 2
Dangerous builds not checked
WARNING: Use special bonds = 0,1,1 with bond style fene (../bond_fene.cpp:188)
Neighbor list info ...
  1 neighbor list requests
  update every 6 steps, delay 0 steps, check no
  max neighbors/atom: 2000, page size: 100000
  master list distance cutoff = 2
  ghost atom cutoff = 5
  binsize = 1, bins = 20 20 20
Setting up Verlet run ...
  Unit style  : lj
  Current step: 36
  Time step   : 0.01
Memory usage per processor = 19.052 Mbytes
Step Temp E_pair E_mol TotEng Press 
      36            0    4.2162452            0    4.2162452    16.711674 
Loop time of 1.90735e-06 on 2 procs for 0 steps with 24000 atoms

0.0% CPU use with 2 MPI tasks x no OpenMP threads

MPI task timing breakdown:
Section |  min time  |  avg time  |  max time  |%varavg| %total
---------------------------------------------------------------
Pair    | 0          | 0          | 0          |   0.0 |  0.00
Bond    | 0          | 0          | 0          |   0.0 |  0.00
Neigh   | 0          | 0          | 0          |   0.0 |  0.00
Comm    | 0          | 0          | 0          |   0.0 |  0.00
Output  | 0          | 0          | 0          |   0.0 |  0.00
Modify  | 0          | 0          | 0          |   0.0 |  0.00
Other   |            | 1.907e-06  |            |       |100.00

Nlocal:    12000 ave 12101 max 11899 min
Histogram: 1 0 0 0 0 0 0 0 0 1
Nghost:    41971 ave 42072 max 41870 min
Histogram: 1 0 0 0 0 0 0 0 0 1
Neighs:    599470 ave 607121 max 591820 min
Histogram: 1 0 0 0 0 0 0 0 0 1

Total # of neighbors = 1198941
Ave neighs/atom = 49.9559
Ave special neighs/atom = 0
Neighbor list builds = 0
Dangerous builds not checked
WARNING: Use special bonds = 0,1,1 with bond style fene (../bond_fene.cpp:188)
Setting up Verlet run ...
  Unit style  : lj
  Current step: 36
  Time step   : 0.005
Memory usage per processor = 19.0672 Mbytes
Step Temp Press Pxy visc vave 
      36   0.44450588    17.950247   0.14274372   -1.4274372            0 
Loop time of 1.54972e-06 on 2 procs for 0 steps with 24000 atoms

0.0% CPU use with 2 MPI tasks x no OpenMP threads

MPI task timing breakdown:
Section |  min time  |  avg time  |  max time  |%varavg| %total
---------------------------------------------------------------
Pair    | 0          | 0          | 0          |   0.0 |  0.00
Bond    | 0          | 0          | 0          |   0.0 |  0.00
Neigh   | 0          | 0          | 0          |   0.0 |  0.00
Comm    | 0          | 0          | 0          |   0.0 |  0.00
Output  | 0          | 0          | 0          |   0.0 |  0.00
Modify  | 0          | 0          | 0          |   0.0 |  0.00
Other   |            | 1.55e-06   |            |       |100.00

Nlocal:    12000 ave 12101 max 11899 min
Histogram: 1 0 0 0 0 0 0 0 0 1
Nghost:    41971 ave 42072 max 41870 min
Histogram: 1 0 0 0 0 0 0 0 0 1
Neighs:    599470 ave 607121 max 591820 min
Histogram: 1 0 0 0 0 0 0 0 0 1

Total # of neighbors = 1198941
Ave neighs/atom = 49.9559
Ave special neighs/atom = 0
Neighbor list builds = 0
Dangerous builds not checked
0000Total wall time: 0:00:03
numProcs 2 nprocs 2
Using all 2 for LAMMPS simulation
LAMMPS (14 May 2016)
fix		shear all deform 1 xy erate 0.030960 remap v flip yes units boxfix		shear all deform 1 xy erate 0.030964 remap v flip yes units boxCreated triclinic box = (0 0 0) to (20 20 20) with tilt (0 0 0)
  1 by 1 by 2 MPI processor grid
Read molecule polymer:
  15 atoms with 2 types
  14 bonds with 3 types
  0 angles with 0 types
  0 dihedrals with 0 types
  0 impropers with 0 types
Created 24000 atoms
Created 0 atoms
24000 atoms in group water
0 atoms in group polymer
Setting atom values ...
  24000 settings made for type
WARNING: Resetting reneighboring criteria during minimization (../min.cpp:168)
WARNING: Use special bonds = 0,1,1 with bond style fene (../bond_fene.cpp:188)
Neighbor list info ...
  1 neighbor list requests
  update every 1 steps, delay 0 steps, check yes
  max neighbors/atom: 2000, page size: 100000
  master list distance cutoff = 2
  ghost atom cutoff = 5
  binsize = 1, bins = 20 20 20
Setting up cg style minimization ...
  Unit style: lj
Memory usage per processor = 24.0367 Mbytes
Step Temp E_pair E_mol TotEng Press 
       0            0    7.8441595            0    7.8441595    18.844752 
      36            0    4.2162452            0    4.2162452    16.613297 
Loop time of 2.84121 on 2 procs for 36 steps with 24000 atoms

100.0% CPU use with 2 MPI tasks x no OpenMP threads

Minimization stats:
  Stopping criterion = energy tolerance
  Energy initial, next-to-last, final = 
         7.84415951736      4.21627648972       4.2162452417
  Force two-norm initial, final = 6804.29 4029.97
  Force max component initial, final = 159.709 92.4734
  Final line search alpha, max atom move = 1.50171e-05 0.00138868
  Iterations, force evaluations = 36 122

MPI task timing breakdown:
Section |  min time  |  avg time  |  max time  |%varavg| %total
---------------------------------------------------------------
Pair    | 2.262      | 2.2764     | 2.2908     |   1.0 | 80.12
Bond    | 0.00014043 | 0.00015545 | 0.00017047 |   0.1 |  0.01
Neigh   | 0.11946    | 0.11949    | 0.11953    |   0.0 |  4.21
Comm    | 0.3833     | 0.39749    | 0.41168    |   2.3 | 13.99
Output  | 0          | 0          | 0          |   0.0 |  0.00
Modify  | 0          | 0          | 0          |   0.0 |  0.00
Other   |            | 0.04768    |            |       |  1.68

Nlocal:    12000 ave 12120 max 11880 min
Histogram: 1 0 0 0 0 0 0 0 0 1
Nghost:    41964 ave 42084 max 41844 min
Histogram: 1 0 0 0 0 0 0 0 0 1
Neighs:    600304 ave 609048 max 591559 min
Histogram: 1 0 0 0 0 0 0 0 0 1

Total # of neighbors = 1200607
Ave neighs/atom = 50.0253
Ave special neighs/atom = 0
Neighbor list builds = 2
Dangerous builds not checked
WARNING: Use special bonds = 0,1,1 with bond style fene (../bond_fene.cpp:188)
Neighbor list info ...
  1 neighbor list requests
  update every 6 steps, delay 0 steps, check no
  max neighbors/atom: 2000, page size: 100000
  master list distance cutoff = 2
  ghost atom cutoff = 5
  binsize = 1, bins = 20 20 20
Setting up Verlet run ...
  Unit style  : lj
  Current step: 36
  Time step   : 0.01
Memory usage per processor = 19.052 Mbytes
Step Temp E_pair E_mol TotEng Press 
      36            0    4.2162452            0    4.2162452    16.711674 
Loop time of 1.78814e-06 on 2 procs for 0 steps with 24000 atoms

0.0% CPU use with 2 MPI tasks x no OpenMP threads

MPI task timing breakdown:
Section |  min time  |  avg time  |  max time  |%varavg| %total
---------------------------------------------------------------
Pair    | 0          | 0          | 0          |   0.0 |  0.00
Bond    | 0          | 0          | 0          |   0.0 |  0.00
Neigh   | 0          | 0          | 0          |   0.0 |  0.00
Comm    | 0          | 0          | 0          |   0.0 |  0.00
Output  | 0          | 0          | 0          |   0.0 |  0.00
Modify  | 0          | 0          | 0          |   0.0 |  0.00
Other   |            | 1.788e-06  |            |       |100.00

Nlocal:    12000 ave 12101 max 11899 min
Histogram: 1 0 0 0 0 0 0 0 0 1
Nghost:    41971 ave 42072 max 41870 min
Histogram: 1 0 0 0 0 0 0 0 0 1
Neighs:    599470 ave 607121 max 591820 min
Histogram: 1 0 0 0 0 0 0 0 0 1

Total # of neighbors = 1198941
Ave neighs/atom = 49.9559
Ave special neighs/atom = 0
Neighbor list builds = 0
Dangerous builds not checked
WARNING: Use special bonds = 0,1,1 with bond style fene (../bond_fene.cpp:188)
Setting up Verlet run ...
  Unit style  : lj
  Current step: 36
  Time step   : 0.005
Memory usage per processor = 19.0672 Mbytes
Step Temp Press Pxy visc vave 
      36   0.44450588    17.950247   0.14274372   -1.4274372            0 
Loop time of 1.54972e-06 on 2 procs for 0 steps with 24000 atoms

0.0% CPU use with 2 MPI tasks x no OpenMP threads

MPI task timing breakdown:
Section |  min time  |  avg time  |  max time  |%varavg| %total
---------------------------------------------------------------
Pair    | 0          | 0          | 0          |   0.0 |  0.00
Bond    | 0          | 0          | 0          |   0.0 |  0.00
Neigh   | 0          | 0          | 0          |   0.0 |  0.00
Comm    | 0          | 0          | 0          |   0.0 |  0.00
Output  | 0          | 0          | 0          |   0.0 |  0.00
Modify  | 0          | 0          | 0          |   0.0 |  0.00
Other   |            | 1.55e-06   |            |       |100.00

Nlocal:    12000 ave 12101 max 11899 min
Histogram: 1 0 0 0 0 0 0 0 0 1
Nghost:    41971 ave 42072 max 41870 min
Histogram: 1 0 0 0 0 0 0 0 0 1
Neighs:    599470 ave 607121 max 591820 min
Histogram: 1 0 0 0 0 0 0 0 0 1

Total # of neighbors = 1198941
Ave neighs/atom = 49.9559
Ave special neighs/atom = 0
Neighbor list builds = 0
Dangerous builds not checked
0000Total wall time: 0:00:03
numProcs 2 nprocs 2
Using all 2 for LAMMPS simulation
LAMMPS (14 May 2016)
fix		shear all deform 1 xy erate 0.030970 remap v flip yes units boxfix		shear all deform 1 xy erate 0.030963 remap v flip yes units boxCreated triclinic box = (0 0 0) to (20 20 20) with tilt (0 0 0)
  1 by 1 by 2 MPI processor grid
Read molecule polymer:
  15 atoms with 2 types
  14 bonds with 3 types
  0 angles with 0 types
  0 dihedrals with 0 types
  0 impropers with 0 types
Created 24000 atoms
Created 0 atoms
24000 atoms in group water
0 atoms in group polymer
Setting atom values ...
  24000 settings made for type
WARNING: Resetting reneighboring criteria during minimization (../min.cpp:168)
WARNING: Use special bonds = 0,1,1 with bond style fene (../bond_fene.cpp:188)
Neighbor list info ...
  1 neighbor list requests
  update every 1 steps, delay 0 steps, check yes
  max neighbors/atom: 2000, page size: 100000
  master list distance cutoff = 2
  ghost atom cutoff = 5
  binsize = 1, bins = 20 20 20
Setting up cg style minimization ...
  Unit style: lj
Memory usage per processor = 24.0367 Mbytes
Step Temp E_pair E_mol TotEng Press 
       0            0    7.8441595            0    7.8441595    18.844752 
      36            0    4.2162452            0    4.2162452    16.613297 
Loop time of 2.65195 on 2 procs for 36 steps with 24000 atoms

99.9% CPU use with 2 MPI tasks x no OpenMP threads

Minimization stats:
  Stopping criterion = energy tolerance
  Energy initial, next-to-last, final = 
         7.84415951736      4.21627648972       4.2162452417
  Force two-norm initial, final = 6804.29 4029.97
  Force max component initial, final = 159.709 92.4734
  Final line search alpha, max atom move = 1.50171e-05 0.00138868
  Iterations, force evaluations = 36 122

MPI task timing breakdown:
Section |  min time  |  avg time  |  max time  |%varavg| %total
---------------------------------------------------------------
Pair    | 2.0835     | 2.1183     | 2.1532     |   2.4 | 79.88
Bond    | 0.00014281 | 0.00014532 | 0.00014782 |   0.0 |  0.01
Neigh   | 0.12031    | 0.12037    | 0.12042    |   0.0 |  4.54
Comm    | 0.33233    | 0.36702    | 0.4017     |   5.7 | 13.84
Output  | 0          | 0          | 0          |   0.0 |  0.00
Modify  | 0          | 0          | 0          |   0.0 |  0.00
Other   |            | 0.04608    |            |       |  1.74

Nlocal:    12000 ave 12120 max 11880 min
Histogram: 1 0 0 0 0 0 0 0 0 1
Nghost:    41964 ave 42084 max 41844 min
Histogram: 1 0 0 0 0 0 0 0 0 1
Neighs:    600304 ave 609048 max 591559 min
Histogram: 1 0 0 0 0 0 0 0 0 1

Total # of neighbors = 1200607
Ave neighs/atom = 50.0253
Ave special neighs/atom = 0
Neighbor list builds = 2
Dangerous builds not checked
WARNING: Use special bonds = 0,1,1 with bond style fene (../bond_fene.cpp:188)
Neighbor list info ...
  1 neighbor list requests
  update every 6 steps, delay 0 steps, check no
  max neighbors/atom: 2000, page size: 100000
  master list distance cutoff = 2
  ghost atom cutoff = 5
  binsize = 1, bins = 20 20 20
Setting up Verlet run ...
  Unit style  : lj
  Current step: 36
  Time step   : 0.01
Memory usage per processor = 19.052 Mbytes
Step Temp E_pair E_mol TotEng Press 
      36            0    4.2162452            0    4.2162452    16.711674 
Loop time of 1.78814e-06 on 2 procs for 0 steps with 24000 atoms

0.0% CPU use with 2 MPI tasks x no OpenMP threads

MPI task timing breakdown:
Section |  min time  |  avg time  |  max time  |%varavg| %total
---------------------------------------------------------------
Pair    | 0          | 0          | 0          |   0.0 |  0.00
Bond    | 0          | 0          | 0          |   0.0 |  0.00
Neigh   | 0          | 0          | 0          |   0.0 |  0.00
Comm    | 0          | 0          | 0          |   0.0 |  0.00
Output  | 0          | 0          | 0          |   0.0 |  0.00
Modify  | 0          | 0          | 0          |   0.0 |  0.00
Other   |            | 1.788e-06  |            |       |100.00

Nlocal:    12000 ave 12101 max 11899 min
Histogram: 1 0 0 0 0 0 0 0 0 1
Nghost:    41971 ave 42072 max 41870 min
Histogram: 1 0 0 0 0 0 0 0 0 1
Neighs:    599470 ave 607121 max 591820 min
Histogram: 1 0 0 0 0 0 0 0 0 1

Total # of neighbors = 1198941
Ave neighs/atom = 49.9559
Ave special neighs/atom = 0
Neighbor list builds = 0
Dangerous builds not checked
WARNING: Use special bonds = 0,1,1 with bond style fene (../bond_fene.cpp:188)
Setting up Verlet run ...
  Unit style  : lj
  Current step: 36
  Time step   : 0.005
Memory usage per processor = 19.0672 Mbytes
Step Temp Press Pxy visc vave 
      36   0.44450588    17.950247   0.14274372   -1.4274372            0 
Loop time of 2.02656e-06 on 2 procs for 0 steps with 24000 atoms

0.0% CPU use with 2 MPI tasks x no OpenMP threads

MPI task timing breakdown:
Section |  min time  |  avg time  |  max time  |%varavg| %total
---------------------------------------------------------------
Pair    | 0          | 0          | 0          |   0.0 |  0.00
Bond    | 0          | 0          | 0          |   0.0 |  0.00
Neigh   | 0          | 0          | 0          |   0.0 |  0.00
Comm    | 0          | 0          | 0          |   0.0 |  0.00
Output  | 0          | 0          | 0          |   0.0 |  0.00
Modify  | 0          | 0          | 0          |   0.0 |  0.00
Other   |            | 2.027e-06  |            |       |100.00

Nlocal:    12000 ave 12101 max 11899 min
Histogram: 1 0 0 0 0 0 0 0 0 1
Nghost:    41971 ave 42072 max 41870 min
Histogram: 1 0 0 0 0 0 0 0 0 1
Neighs:    599470 ave 607121 max 591820 min
Histogram: 1 0 0 0 0 0 0 0 0 1

Total # of neighbors = 1198941
Ave neighs/atom = 49.9559
Ave special neighs/atom = 0
Neighbor list builds = 0
Dangerous builds not checked
0000Total wall time: 0:00:02
numProcs 2 nprocs 2
Using all 2 for LAMMPS simulation
LAMMPS (14 May 2016)
fix		shear all deform 1 xy erate 0.030960 remap v flip yes units boxfix		shear all deform 1 xy erate 0.030964 remap v flip yes units boxCreated triclinic box = (0 0 0) to (20 20 20) with tilt (0 0 0)
  1 by 1 by 2 MPI processor grid
Read molecule polymer:
  15 atoms with 2 types
  14 bonds with 3 types
  0 angles with 0 types
  0 dihedrals with 0 types
  0 impropers with 0 types
Created 24000 atoms
Created 0 atoms
24000 atoms in group water
0 atoms in group polymer
Setting atom values ...
  24000 settings made for type
WARNING: Resetting reneighboring criteria during minimization (../min.cpp:168)
WARNING: Use special bonds = 0,1,1 with bond style fene (../bond_fene.cpp:188)
Neighbor list info ...
  1 neighbor list requests
  update every 1 steps, delay 0 steps, check yes
  max neighbors/atom: 2000, page size: 100000
  master list distance cutoff = 2
  ghost atom cutoff = 5
  binsize = 1, bins = 20 20 20
Setting up cg style minimization ...
  Unit style: lj
Memory usage per processor = 24.0367 Mbytes
Step Temp E_pair E_mol TotEng Press 
       0            0    7.8441595            0    7.8441595    18.844752 
      36            0    4.2162452            0    4.2162452    16.613297 
Loop time of 2.49243 on 2 procs for 36 steps with 24000 atoms

99.7% CPU use with 2 MPI tasks x no OpenMP threads

Minimization stats:
  Stopping criterion = energy tolerance
  Energy initial, next-to-last, final = 
         7.84415951736      4.21627648972       4.2162452417
  Force two-norm initial, final = 6804.29 4029.97
  Force max component initial, final = 159.709 92.4734
  Final line search alpha, max atom move = 1.50171e-05 0.00138868
  Iterations, force evaluations = 36 122

MPI task timing breakdown:
Section |  min time  |  avg time  |  max time  |%varavg| %total
---------------------------------------------------------------
Pair    | 1.9171     | 1.9781     | 2.0391     |   4.3 | 79.36
Bond    | 0.00013351 | 0.00014102 | 0.00014853 |   0.1 |  0.01
Neigh   | 0.11504    | 0.11512    | 0.1152     |   0.0 |  4.62
Comm    | 0.29405    | 0.35481    | 0.41558    |  10.2 | 14.24
Output  | 0          | 0          | 0          |   0.0 |  0.00
Modify  | 0          | 0          | 0          |   0.0 |  0.00
Other   |            | 0.04428    |            |       |  1.78

Nlocal:    12000 ave 12120 max 11880 min
Histogram: 1 0 0 0 0 0 0 0 0 1
Nghost:    41964 ave 42084 max 41844 min
Histogram: 1 0 0 0 0 0 0 0 0 1
Neighs:    600304 ave 609048 max 591559 min
Histogram: 1 0 0 0 0 0 0 0 0 1

Total # of neighbors = 1200607
Ave neighs/atom = 50.0253
Ave special neighs/atom = 0
Neighbor list builds = 2
Dangerous builds not checked
WARNING: Use special bonds = 0,1,1 with bond style fene (../bond_fene.cpp:188)
Neighbor list info ...
  1 neighbor list requests
  update every 6 steps, delay 0 steps, check no
  max neighbors/atom: 2000, page size: 100000
  master list distance cutoff = 2
  ghost atom cutoff = 5
  binsize = 1, bins = 20 20 20
Setting up Verlet run ...
  Unit style  : lj
  Current step: 36
  Time step   : 0.01
Memory usage per processor = 19.052 Mbytes
Step Temp E_pair E_mol TotEng Press 
      36            0    4.2162452            0    4.2162452    16.711674 
Loop time of 1.66893e-06 on 2 procs for 0 steps with 24000 atoms

0.0% CPU use with 2 MPI tasks x no OpenMP threads

MPI task timing breakdown:
Section |  min time  |  avg time  |  max time  |%varavg| %total
---------------------------------------------------------------
Pair    | 0          | 0          | 0          |   0.0 |  0.00
Bond    | 0          | 0          | 0          |   0.0 |  0.00
Neigh   | 0          | 0          | 0          |   0.0 |  0.00
Comm    | 0          | 0          | 0          |   0.0 |  0.00
Output  | 0          | 0          | 0          |   0.0 |  0.00
Modify  | 0          | 0          | 0          |   0.0 |  0.00
Other   |            | 1.669e-06  |            |       |100.00

Nlocal:    12000 ave 12101 max 11899 min
Histogram: 1 0 0 0 0 0 0 0 0 1
Nghost:    41971 ave 42072 max 41870 min
Histogram: 1 0 0 0 0 0 0 0 0 1
Neighs:    599470 ave 607121 max 591820 min
Histogram: 1 0 0 0 0 0 0 0 0 1

Total # of neighbors = 1198941
Ave neighs/atom = 49.9559
Ave special neighs/atom = 0
Neighbor list builds = 0
Dangerous builds not checked
WARNING: Use special bonds = 0,1,1 with bond style fene (../bond_fene.cpp:188)
Setting up Verlet run ...
  Unit style  : lj
  Current step: 36
  Time step   : 0.005
Memory usage per processor = 19.0672 Mbytes
Step Temp Press Pxy visc vave 
      36   0.44450588    17.950247   0.14274372   -1.4274372            0 
Loop time of 1.43051e-06 on 2 procs for 0 steps with 24000 atoms

0.0% CPU use with 2 MPI tasks x no OpenMP threads

MPI task timing breakdown:
Section |  min time  |  avg time  |  max time  |%varavg| %total
---------------------------------------------------------------
Pair    | 0          | 0          | 0          |   0.0 |  0.00
Bond    | 0          | 0          | 0          |   0.0 |  0.00
Neigh   | 0          | 0          | 0          |   0.0 |  0.00
Comm    | 0          | 0          | 0          |   0.0 |  0.00
Output  | 0          | 0          | 0          |   0.0 |  0.00
Modify  | 0          | 0          | 0          |   0.0 |  0.00
Other   |            | 1.431e-06  |            |       |100.00

Nlocal:    12000 ave 12101 max 11899 min
Histogram: 1 0 0 0 0 0 0 0 0 1
Nghost:    41971 ave 42072 max 41870 min
Histogram: 1 0 0 0 0 0 0 0 0 1
Neighs:    599470 ave 607121 max 591820 min
Histogram: 1 0 0 0 0 0 0 0 0 1

Total # of neighbors = 1198941
Ave neighs/atom = 49.9559
Ave special neighs/atom = 0
Neighbor list builds = 0
Dangerous builds not checked
0000Total wall time: 0:00:02
numProcs 2 nprocs 2
Using all 2 for LAMMPS simulation
LAMMPS (14 May 2016)
fix		shear all deform 1 xy erate 0.030965 remap v flip yes units boxfix		shear all deform 1 xy erate 0.030963 remap v flip yes units boxCreated triclinic box = (0 0 0) to (20 20 20) with tilt (0 0 0)
  1 by 1 by 2 MPI processor grid
Read molecule polymer:
  15 atoms with 2 types
  14 bonds with 3 types
  0 angles with 0 types
  0 dihedrals with 0 types
  0 impropers with 0 types
Created 24000 atoms
Created 0 atoms
24000 atoms in group water
0 atoms in group polymer
Setting atom values ...
  24000 settings made for type
WARNING: Resetting reneighboring criteria during minimization (../min.cpp:168)
WARNING: Use special bonds = 0,1,1 with bond style fene (../bond_fene.cpp:188)
Neighbor list info ...
  1 neighbor list requests
  update every 1 steps, delay 0 steps, check yes
  max neighbors/atom: 2000, page size: 100000
  master list distance cutoff = 2
  ghost atom cutoff = 5
  binsize = 1, bins = 20 20 20
Setting up cg style minimization ...
  Unit style: lj
Memory usage per processor = 24.0367 Mbytes
Step Temp E_pair E_mol TotEng Press 
       0            0    7.8441595            0    7.8441595    18.844752 
      36            0    4.2162452            0    4.2162452    16.613297 
Loop time of 2.2665 on 2 procs for 36 steps with 24000 atoms

100.0% CPU use with 2 MPI tasks x no OpenMP threads

Minimization stats:
  Stopping criterion = energy tolerance
  Energy initial, next-to-last, final = 
         7.84415951736      4.21627648972       4.2162452417
  Force two-norm initial, final = 6804.29 4029.97
  Force max component initial, final = 159.709 92.4734
  Final line search alpha, max atom move = 1.50171e-05 0.00138868
  Iterations, force evaluations = 36 122

MPI task timing breakdown:
Section |  min time  |  avg time  |  max time  |%varavg| %total
---------------------------------------------------------------
Pair    | 1.7842     | 1.8102     | 1.8362     |   1.9 | 79.87
Bond    | 9.0837e-05 | 0.00011015 | 0.00012946 |   0.2 |  0.00
Neigh   | 0.10263    | 0.10265    | 0.10267    |   0.0 |  4.53
Comm    | 0.28609    | 0.31205    | 0.33801    |   4.6 | 13.77
Output  | 0          | 0          | 0          |   0.0 |  0.00
Modify  | 0          | 0          | 0          |   0.0 |  0.00
Other   |            | 0.04151    |            |       |  1.83

Nlocal:    12000 ave 12120 max 11880 min
Histogram: 1 0 0 0 0 0 0 0 0 1
Nghost:    41964 ave 42084 max 41844 min
Histogram: 1 0 0 0 0 0 0 0 0 1
Neighs:    600304 ave 609048 max 591559 min
Histogram: 1 0 0 0 0 0 0 0 0 1

Total # of neighbors = 1200607
Ave neighs/atom = 50.0253
Ave special neighs/atom = 0
Neighbor list builds = 2
Dangerous builds not checked
WARNING: Use special bonds = 0,1,1 with bond style fene (../bond_fene.cpp:188)
Neighbor list info ...
  1 neighbor list requests
  update every 6 steps, delay 0 steps, check no
  max neighbors/atom: 2000, page size: 100000
  master list distance cutoff = 2
  ghost atom cutoff = 5
  binsize = 1, bins = 20 20 20
Setting up Verlet run ...
  Unit style  : lj
  Current step: 36
  Time step   : 0.01
Memory usage per processor = 19.052 Mbytes
Step Temp E_pair E_mol TotEng Press 
      36            0    4.2162452            0    4.2162452    16.711674 
Loop time of 1.3113e-06 on 2 procs for 0 steps with 24000 atoms

0.0% CPU use with 2 MPI tasks x no OpenMP threads

MPI task timing breakdown:
Section |  min time  |  avg time  |  max time  |%varavg| %total
---------------------------------------------------------------
Pair    | 0          | 0          | 0          |   0.0 |  0.00
Bond    | 0          | 0          | 0          |   0.0 |  0.00
Neigh   | 0          | 0          | 0          |   0.0 |  0.00
Comm    | 0          | 0          | 0          |   0.0 |  0.00
Output  | 0          | 0          | 0          |   0.0 |  0.00
Modify  | 0          | 0          | 0          |   0.0 |  0.00
Other   |            | 1.311e-06  |            |       |100.00

Nlocal:    12000 ave 12101 max 11899 min
Histogram: 1 0 0 0 0 0 0 0 0 1
Nghost:    41971 ave 42072 max 41870 min
Histogram: 1 0 0 0 0 0 0 0 0 1
Neighs:    599470 ave 607121 max 591820 min
Histogram: 1 0 0 0 0 0 0 0 0 1

Total # of neighbors = 1198941
Ave neighs/atom = 49.9559
Ave special neighs/atom = 0
Neighbor list builds = 0
Dangerous builds not checked
WARNING: Use special bonds = 0,1,1 with bond style fene (../bond_fene.cpp:188)
Setting up Verlet run ...
  Unit style  : lj
  Current step: 36
  Time step   : 0.005
Memory usage per processor = 19.0672 Mbytes
Step Temp Press Pxy visc vave 
      36   0.44450588    17.950247   0.14274372   -1.4274372            0 
Loop time of 1.3113e-06 on 2 procs for 0 steps with 24000 atoms

0.0% CPU use with 2 MPI tasks x no OpenMP threads

MPI task timing breakdown:
Section |  min time  |  avg time  |  max time  |%varavg| %total
---------------------------------------------------------------
Pair    | 0          | 0          | 0          |   0.0 |  0.00
Bond    | 0          | 0          | 0          |   0.0 |  0.00
Neigh   | 0          | 0          | 0          |   0.0 |  0.00
Comm    | 0          | 0          | 0          |   0.0 |  0.00
Output  | 0          | 0          | 0          |   0.0 |  0.00
Modify  | 0          | 0          | 0          |   0.0 |  0.00
Other   |            | 1.311e-06  |            |       |100.00

Nlocal:    12000 ave 12101 max 11899 min
Histogram: 1 0 0 0 0 0 0 0 0 1
Nghost:    41971 ave 42072 max 41870 min
Histogram: 1 0 0 0 0 0 0 0 0 1
Neighs:    599470 ave 607121 max 591820 min
Histogram: 1 0 0 0 0 0 0 0 0 1

Total # of neighbors = 1198941
Ave neighs/atom = 49.9559
Ave special neighs/atom = 0
Neighbor list builds = 0
Dangerous builds not checked
0000Total wall time: 0:00:02
numProcs 2 nprocs 2
Using all 2 for LAMMPS simulation
LAMMPS (14 May 2016)
fix		shear all deform 1 xy erate 0.051580 remap v flip yes units boxfix		shear all deform 1 xy erate 0.051502 remap v flip yes units boxCreated triclinic box = (0 0 0) to (20 20 20) with tilt (0 0 0)
  1 by 1 by 2 MPI processor grid
Read molecule polymer:
  15 atoms with 2 types
  14 bonds with 3 types
  0 angles with 0 types
  0 dihedrals with 0 types
  0 impropers with 0 types
Created 24000 atoms
Created 0 atoms
24000 atoms in group water
0 atoms in group polymer
Setting atom values ...
  24000 settings made for type
WARNING: Resetting reneighboring criteria during minimization (../min.cpp:168)
WARNING: Use special bonds = 0,1,1 with bond style fene (../bond_fene.cpp:188)
Neighbor list info ...
  1 neighbor list requests
  update every 1 steps, delay 0 steps, check yes
  max neighbors/atom: 2000, page size: 100000
  master list distance cutoff = 2
  ghost atom cutoff = 5
  binsize = 1, bins = 20 20 20
Setting up cg style minimization ...
  Unit style: lj
Memory usage per processor = 24.0367 Mbytes
Step Temp E_pair E_mol TotEng Press 
       0            0    7.8441595            0    7.8441595    18.844752 
      36            0    4.2162452            0    4.2162452    16.613297 
Loop time of 2.05558 on 2 procs for 36 steps with 24000 atoms

99.9% CPU use with 2 MPI tasks x no OpenMP threads

Minimization stats:
  Stopping criterion = energy tolerance
  Energy initial, next-to-last, final = 
         7.84415951736      4.21627648972       4.2162452417
  Force two-norm initial, final = 6804.29 4029.97
  Force max component initial, final = 159.709 92.4734
  Final line search alpha, max atom move = 1.50171e-05 0.00138868
  Iterations, force evaluations = 36 122

MPI task timing breakdown:
Section |  min time  |  avg time  |  max time  |%varavg| %total
---------------------------------------------------------------
Pair    | 1.62       | 1.6474     | 1.6748     |   2.1 | 80.14
Bond    | 7.7963e-05 | 8.2612e-05 | 8.7261e-05 |   0.1 |  0.00
Neigh   | 0.098753   | 0.098757   | 0.098762   |   0.0 |  4.80
Comm    | 0.24363    | 0.27096    | 0.29829    |   5.3 | 13.18
Output  | 0          | 0          | 0          |   0.0 |  0.00
Modify  | 0          | 0          | 0          |   0.0 |  0.00
Other   |            | 0.0384     |            |       |  1.87

Nlocal:    12000 ave 12120 max 11880 min
Histogram: 1 0 0 0 0 0 0 0 0 1
Nghost:    41964 ave 42084 max 41844 min
Histogram: 1 0 0 0 0 0 0 0 0 1
Neighs:    600304 ave 609048 max 591559 min
Histogram: 1 0 0 0 0 0 0 0 0 1

Total # of neighbors = 1200607
Ave neighs/atom = 50.0253
Ave special neighs/atom = 0
Neighbor list builds = 2
Dangerous builds not checked
WARNING: Use special bonds = 0,1,1 with bond style fene (../bond_fene.cpp:188)
Neighbor list info ...
  1 neighbor list requests
  update every 6 steps, delay 0 steps, check no
  max neighbors/atom: 2000, page size: 100000
  master list distance cutoff = 2
  ghost atom cutoff = 5
  binsize = 1, bins = 20 20 20
Setting up Verlet run ...
  Unit style  : lj
  Current step: 36
  Time step   : 0.01
Memory usage per processor = 19.052 Mbytes
Step Temp E_pair E_mol TotEng Press 
      36            0    4.2162452            0    4.2162452    16.711674 
Loop time of 1.66893e-06 on 2 procs for 0 steps with 24000 atoms

0.0% CPU use with 2 MPI tasks x no OpenMP threads

MPI task timing breakdown:
Section |  min time  |  avg time  |  max time  |%varavg| %total
---------------------------------------------------------------
Pair    | 0          | 0          | 0          |   0.0 |  0.00
Bond    | 0          | 0          | 0          |   0.0 |  0.00
Neigh   | 0          | 0          | 0          |   0.0 |  0.00
Comm    | 0          | 0          | 0          |   0.0 |  0.00
Output  | 0          | 0          | 0          |   0.0 |  0.00
Modify  | 0          | 0          | 0          |   0.0 |  0.00
Other   |            | 1.669e-06  |            |       |100.00

Nlocal:    12000 ave 12101 max 11899 min
Histogram: 1 0 0 0 0 0 0 0 0 1
Nghost:    41971 ave 42072 max 41870 min
Histogram: 1 0 0 0 0 0 0 0 0 1
Neighs:    599470 ave 607121 max 591820 min
Histogram: 1 0 0 0 0 0 0 0 0 1

Total # of neighbors = 1198941
Ave neighs/atom = 49.9559
Ave special neighs/atom = 0
Neighbor list builds = 0
Dangerous builds not checked
WARNING: Use special bonds = 0,1,1 with bond style fene (../bond_fene.cpp:188)
Setting up Verlet run ...
  Unit style  : lj
  Current step: 36
  Time step   : 0.005
Memory usage per processor = 19.0672 Mbytes
Step Temp Press Pxy visc vave 
      36   0.44450588    17.950247   0.14274372   -1.4274372            0 
Loop time of 1.3113e-06 on 2 procs for 0 steps with 24000 atoms

0.0% CPU use with 2 MPI tasks x no OpenMP threads

MPI task timing breakdown:
Section |  min time  |  avg time  |  max time  |%varavg| %total
---------------------------------------------------------------
Pair    | 0          | 0          | 0          |   0.0 |  0.00
Bond    | 0          | 0          | 0          |   0.0 |  0.00
Neigh   | 0          | 0          | 0          |   0.0 |  0.00
Comm    | 0          | 0          | 0          |   0.0 |  0.00
Output  | 0          | 0          | 0          |   0.0 |  0.00
Modify  | 0          | 0          | 0          |   0.0 |  0.00
Other   |            | 1.311e-06  |            |       |100.00

Nlocal:    12000 ave 12101 max 11899 min
Histogram: 1 0 0 0 0 0 0 0 0 1
Nghost:    41971 ave 42072 max 41870 min
Histogram: 1 0 0 0 0 0 0 0 0 1
Neighs:    599470 ave 607121 max 591820 min
Histogram: 1 0 0 0 0 0 0 0 0 1

Total # of neighbors = 1198941
Ave neighs/atom = 49.9559
Ave special neighs/atom = 0
Neighbor list builds = 0
Dangerous builds not checked
0000Total wall time: 0:00:02
numProcs 2 nprocs 2
Using all 2 for LAMMPS simulation
LAMMPS (14 May 2016)
fix		shear all deform 1 xy erate 0.051494 remap v flip yes units boxfix		shear all deform 1 xy erate 0.051505 remap v flip yes units boxCreated triclinic box = (0 0 0) to (20 20 20) with tilt (0 0 0)
  1 by 1 by 2 MPI processor grid
Read molecule polymer:
  15 atoms with 2 types
  14 bonds with 3 types
  0 angles with 0 types
  0 dihedrals with 0 types
  0 impropers with 0 types
Created 24000 atoms
Created 0 atoms
24000 atoms in group water
0 atoms in group polymer
Setting atom values ...
  24000 settings made for type
WARNING: Resetting reneighboring criteria during minimization (../min.cpp:168)
WARNING: Use special bonds = 0,1,1 with bond style fene (../bond_fene.cpp:188)
Neighbor list info ...
  1 neighbor list requests
  update every 1 steps, delay 0 steps, check yes
  max neighbors/atom: 2000, page size: 100000
  master list distance cutoff = 2
  ghost atom cutoff = 5
  binsize = 1, bins = 20 20 20
Setting up cg style minimization ...
  Unit style: lj
Memory usage per processor = 24.0367 Mbytes
Step Temp E_pair E_mol TotEng Press 
       0            0    7.8441595            0    7.8441595    18.844752 
      36            0    4.2162452            0    4.2162452    16.613297 
Loop time of 2.04621 on 2 procs for 36 steps with 24000 atoms

99.8% CPU use with 2 MPI tasks x no OpenMP threads

Minimization stats:
  Stopping criterion = energy tolerance
  Energy initial, next-to-last, final = 
         7.84415951736      4.21627648972       4.2162452417
[...]
GAMG:  Solving for p, Initial residual = 2.0624e-06, Final residual = 9.98644e-08, No Iterations 1
time step continuity errors : sum local = 3.01801e-09, global = 4.22282e-11, cumulative = -6.50848e-07
GAMG:  Solving for p, Initial residual = 1.85622e-06, Final residual = 7.11377e-08, No Iterations 1
time step continuity errors : sum local = 2.14986e-09, global = 1.70931e-10, cumulative = -6.50677e-07
GAMG:  Solving for p, Initial residual = 1.96662e-06, Final residual = 7.71227e-08, No Iterations 1
time step continuity errors : sum local = 2.33073e-09, global = 1.87428e-10, cumulative = -6.5049e-07
GAMG:  Solving for p, Initial residual = 2.06753e-06, Final residual = 7.82738e-08, No Iterations 1
time step continuity errors : sum local = 2.36552e-09, global = 1.91988e-10, cumulative = -6.50298e-07
GAMG:  Solving for p, Initial residual = 2.17177e-06, Final residual = 8.17069e-08, No Iterations 1
time step continuity errors : sum local = 2.46927e-09, global = -2.50109e-11, cumulative = -6.50323e-07
ExecutionTime = 69.2 s  ClockTime = 70 s

Time = 4.87

Courant Number mean: 0.126819 max: 0.269417
Bad Mood
Bad Mood
smoothSolver:  Solving for Ux, Initial residual = 1.11256e-08, Final residual = 1.11256e-08, No Iterations 0
smoothSolver:  Solving for Uy, Initial residual = 9.39095e-06, Final residual = 9.39095e-06, No Iterations 0
GAMG:  Solving for p, Initial residual = 2.32538e-06, Final residual = 1.11452e-07, No Iterations 1
time step continuity errors : sum local = 3.36818e-09, global = -4.88148e-11, cumulative = -6.50372e-07
GAMG:  Solving for p, Initial residual = 2.12491e-06, Final residual = 8.00374e-08, No Iterations 1
time step continuity errors : sum local = 2.41881e-09, global = -1.27141e-10, cumulative = -6.50499e-07
GAMG:  Solving for p, Initial residual = 2.20678e-06, Final residual = 8.53548e-08, No Iterations 1
time step continuity errors : sum local = 2.57951e-09, global = -1.92919e-10, cumulative = -6.50692e-07
GAMG:  Solving for p, Initial residual = 2.27976e-06, Final residual = 8.58851e-08, No Iterations 1
time step continuity errors : sum local = 2.59554e-09, global = -1.62106e-10, cumulative = -6.50854e-07
GAMG:  Solving for p, Initial residual = 2.35153e-06, Final residual = 8.8677e-08, No Iterations 1
time step continuity errors : sum local = 2.67991e-09, global = 1.42543e-11, cumulative = -6.5084e-07
ExecutionTime = 69.2 s  ClockTime = 70 s

Time = 4.88

Courant Number mean: 0.126819 max: 0.269417
Bad Mood
Bad Mood
smoothSolver:  Solving for Ux, Initial residual = 1.10072e-08, Final residual = 1.10072e-08, No Iterations 0
smoothSolver:  Solving for Uy, Initial residual = 9.98917e-06, Final residual = 9.98917e-06, No Iterations 0
GAMG:  Solving for p, Initial residual = 2.43388e-06, Final residual = 1.16082e-07, No Iterations 1
time step continuity errors : sum local = 3.50811e-09, global = 5.61585e-11, cumulative = -6.50783e-07
GAMG:  Solving for p, Initial residual = 2.22442e-06, Final residual = 8.47961e-08, No Iterations 1
time step continuity errors : sum local = 2.56263e-09, global = 7.11309e-11, cumulative = -6.50712e-07
GAMG:  Solving for p, Initial residual = 2.2682e-06, Final residual = 8.81507e-08, No Iterations 1
time step continuity errors : sum local = 2.66401e-09, global = 1.82767e-10, cumulative = -6.50529e-07
GAMG:  Solving for p, Initial residual = 2.30452e-06, Final residual = 8.82468e-08, No Iterations 1
time step continuity errors : sum local = 2.66691e-09, global = 1.16768e-10, cumulative = -6.50413e-07
GAMG:  Solving for p, Initial residual = 2.3397e-06, Final residual = 8.92316e-08, No Iterations 1
time step continuity errors : sum local = 2.69667e-09, global = -1.32371e-12, cumulative = -6.50414e-07
ExecutionTime = 69.2 s  ClockTime = 70 s

Time = 4.89

Courant Number mean: 0.126819 max: 0.269417
Bad Mood
Bad Mood
smoothSolver:  Solving for Ux, Initial residual = 1.1319e-08, Final residual = 1.1319e-08, No Iterations 0
smoothSolver:  Solving for Uy, Initial residual = 9.85201e-06, Final residual = 9.85201e-06, No Iterations 0
GAMG:  Solving for p, Initial residual = 2.33737e-06, Final residual = 1.09566e-07, No Iterations 1
time step continuity errors : sum local = 3.31121e-09, global = -8.71447e-11, cumulative = -6.50501e-07
GAMG:  Solving for p, Initial residual = 2.21439e-06, Final residual = 8.48442e-08, No Iterations 1
time step continuity errors : sum local = 2.56408e-09, global = -3.59125e-11, cumulative = -6.50537e-07
GAMG:  Solving for p, Initial residual = 2.28389e-06, Final residual = 8.73482e-08, No Iterations 1
time step continuity errors : sum local = 2.63975e-09, global = -1.85569e-10, cumulative = -6.50723e-07
GAMG:  Solving for p, Initial residual = 2.34338e-06, Final residual = 8.74752e-08, No Iterations 1
time step continuity errors : sum local = 2.64359e-09, global = -8.32321e-11, cumulative = -6.50806e-07
GAMG:  Solving for p, Initial residual = 2.39819e-06, Final residual = 8.6741e-08, No Iterations 1
time step continuity errors : sum local = 2.6214e-09, global = -1.37292e-11, cumulative = -6.5082e-07
ExecutionTime = 69.2 s  ClockTime = 70 s

Time = 4.9

Courant Number mean: 0.126819 max: 0.269417
Bad Mood
Bad Mood
smoothSolver:  Solving for Ux, Initial residual = 1.11544e-08, Final residual = 1.11544e-08, No Iterations 0
smoothSolver:  Solving for Uy, Initial residual = 1.0142e-05, Final residual = 1.15973e-07, No Iterations 1
GAMG:  Solving for p, Initial residual = 1.31831e-06, Final residual = 8.13995e-08, No Iterations 1
time step continuity errors : sum local = 2.45998e-09, global = -9.11874e-11, cumulative = -6.50911e-07
GAMG:  Solving for p, Initial residual = 2.4583e-07, Final residual = 2.4583e-07, No Iterations 0
time step continuity errors : sum local = 7.42926e-09, global = -1.70029e-10, cumulative = -6.51081e-07
GAMG:  Solving for p, Initial residual = 2.11841e-07, Final residual = 2.11841e-07, No Iterations 0
time step continuity errors : sum local = 6.40206e-09, global = -2.15624e-10, cumulative = -6.51296e-07
GAMG:  Solving for p, Initial residual = 2.98562e-07, Final residual = 2.98562e-07, No Iterations 0
time step continuity errors : sum local = 9.02285e-09, global = -2.40897e-10, cumulative = -6.51537e-07
GAMG:  Solving for p, Initial residual = 2.6284e-07, Final residual = 2.6284e-07, No Iterations 0
time step continuity errors : sum local = 7.94329e-09, global = -2.54022e-10, cumulative = -6.51791e-07
ExecutionTime = 69.2 s  ClockTime = 70 s

Time = 4.91

Courant Number mean: 0.126819 max: 0.269417
Bad Mood
Bad Mood
smoothSolver:  Solving for Ux, Initial residual = 5.41418e-09, Final residual = 5.41418e-09, No Iterations 0
smoothSolver:  Solving for Uy, Initial residual = 1.64855e-06, Final residual = 1.64855e-06, No Iterations 0
GAMG:  Solving for p, Initial residual = 4.45771e-07, Final residual = 4.45771e-07, No Iterations 0
time step continuity errors : sum local = 1.34717e-08, global = -1.81505e-10, cumulative = -6.51973e-07
GAMG:  Solving for p, Initial residual = 4.65332e-07, Final residual = 4.65332e-07, No Iterations 0
time step continuity errors : sum local = 1.40628e-08, global = -1.23247e-10, cumulative = -6.52096e-07
GAMG:  Solving for p, Initial residual = 5.37374e-07, Final residual = 5.37374e-07, No Iterations 0
time step continuity errors : sum local = 1.624e-08, global = -8.52e-11, cumulative = -6.52181e-07
GAMG:  Solving for p, Initial residual = 5.05607e-07, Final residual = 5.05607e-07, No Iterations 0
time step continuity errors : sum local = 1.528e-08, global = -6.02413e-11, cumulative = -6.52242e-07
GAMG:  Solving for p, Initial residual = 5.68597e-07, Final residual = 5.68597e-07, No Iterations 0
time step continuity errors : sum local = 1.71836e-08, global = -4.43315e-11, cumulative = -6.52286e-07
ExecutionTime = 69.21 s  ClockTime = 70 s

Time = 4.92

Courant Number mean: 0.126819 max: 0.269417
Bad Mood
Bad Mood
smoothSolver:  Solving for Ux, Initial residual = 8.16186e-09, Final residual = 8.16186e-09, No Iterations 0
smoothSolver:  Solving for Uy, Initial residual = 1.80777e-06, Final residual = 1.80777e-06, No Iterations 0
GAMG:  Solving for p, Initial residual = 6.75039e-07, Final residual = 6.75039e-07, No Iterations 0
time step continuity errors : sum local = 2.04004e-08, global = 8.90933e-11, cumulative = -6.52197e-07
GAMG:  Solving for p, Initial residual = 7.20325e-07, Final residual = 7.20325e-07, No Iterations 0
time step continuity errors : sum local = 2.1769e-08, global = 1.87423e-10, cumulative = -6.52009e-07
GAMG:  Solving for p, Initial residual = 7.29412e-07, Final residual = 7.29412e-07, No Iterations 0
time step continuity errors : sum local = 2.20436e-08, global = 2.43113e-10, cumulative = -6.51766e-07
GAMG:  Solving for p, Initial residual = 7.51636e-07, Final residual = 7.51636e-07, No Iterations 0
time step continuity errors : sum local = 2.27152e-08, global = 2.77536e-10, cumulative = -6.51489e-07
GAMG:  Solving for p, Initial residual = 7.5253e-07, Final residual = 7.5253e-07, No Iterations 0
time step continuity errors : sum local = 2.27423e-08, global = 2.97345e-10, cumulative = -6.51191e-07
ExecutionTime = 69.21 s  ClockTime = 70 s

Time = 4.93

Courant Number mean: 0.126819 max: 0.269417
Bad Mood
Bad Mood
smoothSolver:  Solving for Ux, Initial residual = 7.96257e-09, Final residual = 7.96257e-09, No Iterations 0
smoothSolver:  Solving for Uy, Initial residual = 3.09986e-06, Final residual = 3.09986e-06, No Iterations 0
GAMG:  Solving for p, Initial residual = 8.12961e-07, Final residual = 8.12961e-07, No Iterations 0
time step continuity errors : sum local = 2.45685e-08, global = 3.88897e-10, cumulative = -6.50802e-07
GAMG:  Solving for p, Initial residual = 8.33606e-07, Final residual = 8.33606e-07, No Iterations 0
time step continuity errors : sum local = 2.51924e-08, global = 4.08996e-10, cumulative = -6.50393e-07
GAMG:  Solving for p, Initial residual = 8.96439e-07, Final residual = 8.96439e-07, No Iterations 0
time step continuity errors : sum local = 2.70913e-08, global = 4.21089e-10, cumulative = -6.49972e-07
GAMG:  Solving for p, Initial residual = 8.89161e-07, Final residual = 8.89161e-07, No Iterations 0
time step continuity errors : sum local = 2.68714e-08, global = 4.27232e-10, cumulative = -6.49545e-07
GAMG:  Solving for p, Initial residual = 9.94019e-07, Final residual = 9.94019e-07, No Iterations 0
time step continuity errors : sum local = 3.00403e-08, global = 4.31232e-10, cumulative = -6.49114e-07
ExecutionTime = 69.21 s  ClockTime = 70 s

Time = 4.94

Courant Number mean: 0.126819 max: 0.269417
Bad Mood
Bad Mood
smoothSolver:  Solving for Ux, Initial residual = 1.50878e-08, Final residual = 1.50878e-08, No Iterations 0
smoothSolver:  Solving for Uy, Initial residual = 5.4528e-06, Final residual = 5.4528e-06, No Iterations 0
GAMG:  Solving for p, Initial residual = 1.0365e-06, Final residual = 9.52392e-08, No Iterations 1
time step continuity errors : sum local = 2.87823e-09, global = 2.74642e-10, cumulative = -6.48839e-07
GAMG:  Solving for p, Initial residual = 1.41876e-06, Final residual = 5.98479e-08, No Iterations 1
time step continuity errors : sum local = 1.80867e-09, global = 1.88701e-10, cumulative = -6.48651e-07
GAMG:  Solving for p, Initial residual = 1.39472e-06, Final residual = 5.53016e-08, No Iterations 1
time step continuity errors : sum local = 1.67127e-09, global = 6.1104e-11, cumulative = -6.48589e-07
GAMG:  Solving for p, Initial residual = 1.4247e-06, Final residual = 5.67088e-08, No Iterations 1
time step continuity errors : sum local = 1.7138e-09, global = 7.85855e-11, cumulative = -6.48511e-07
GAMG:  Solving for p, Initial residual = 1.45141e-06, Final residual = 5.65431e-08, No Iterations 1
time step continuity errors : sum local = 1.70879e-09, global = -1.11671e-11, cumulative = -6.48522e-07
ExecutionTime = 69.21 s  ClockTime = 70 s

Time = 4.95

Courant Number mean: 0.126819 max: 0.269417
Bad Mood
Bad Mood
smoothSolver:  Solving for Ux, Initial residual = 1.77047e-08, Final residual = 1.77047e-08, No Iterations 0
smoothSolver:  Solving for Uy, Initial residual = 6.73925e-06, Final residual = 6.73925e-06, No Iterations 0
GAMG:  Solving for p, Initial residual = 1.55295e-06, Final residual = 7.41344e-08, No Iterations 1
time step continuity errors : sum local = 2.24042e-09, global = -4.24352e-10, cumulative = -6.48946e-07
GAMG:  Solving for p, Initial residual = 1.39929e-06, Final residual = 6.19717e-08, No Iterations 1
time step continuity errors : sum local = 1.87285e-09, global = -2.05471e-10, cumulative = -6.49152e-07
GAMG:  Solving for p, Initial residual = 1.38711e-06, Final residual = 5.74792e-08, No Iterations 1
time step continuity errors : sum local = 1.73708e-09, global = -9.15642e-11, cumulative = -6.49243e-07
GAMG:  Solving for p, Initial residual = 1.39796e-06, Final residual = 5.45174e-08, No Iterations 1
time step continuity errors : sum local = 1.64757e-09, global = -8.7523e-11, cumulative = -6.49331e-07
GAMG:  Solving for p, Initial residual = 1.4093e-06, Final residual = 5.30562e-08, No Iterations 1
time step continuity errors : sum local = 1.60341e-09, global = 9.96708e-12, cumulative = -6.49321e-07
ExecutionTime = 69.21 s  ClockTime = 70 s

Time = 4.96

Courant Number mean: 0.126819 max: 0.269417
Bad Mood
Bad Mood
smoothSolver:  Solving for Ux, Initial residual = 7.59336e-09, Final residual = 7.59336e-09, No Iterations 0
smoothSolver:  Solving for Uy, Initial residual = 5.91166e-06, Final residual = 5.91166e-06, No Iterations 0
GAMG:  Solving for p, Initial residual = 1.54853e-06, Final residual = 6.65524e-08, No Iterations 1
time step continuity errors : sum local = 2.01128e-09, global = 5.96231e-11, cumulative = -6.49261e-07
GAMG:  Solving for p, Initial residual = 1.31204e-06, Final residual = 4.90922e-08, No Iterations 1
time step continuity errors : sum local = 1.48362e-09, global = 1.38456e-10, cumulative = -6.49123e-07
GAMG:  Solving for p, Initial residual = 1.34612e-06, Final residual = 4.9836e-08, No Iterations 1
time step continuity errors : sum local = 1.5061e-09, global = 1.28387e-10, cumulative = -6.48995e-07
GAMG:  Solving for p, Initial residual = 1.37154e-06, Final residual = 5.09773e-08, No Iterations 1
time step continuity errors : sum local = 1.54059e-09, global = 1.24728e-10, cumulative = -6.4887e-07
GAMG:  Solving for p, Initial residual = 1.41065e-06, Final residual = 5.26258e-08, No Iterations 1
time step continuity errors : sum local = 1.59041e-09, global = -1.1382e-11, cumulative = -6.48881e-07
ExecutionTime = 69.22 s  ClockTime = 70 s

Time = 4.97

Courant Number mean: 0.126819 max: 0.269417
Bad Mood
Bad Mood
smoothSolver:  Solving for Ux, Initial residual = 8.02215e-09, Final residual = 8.02215e-09, No Iterations 0
smoothSolver:  Solving for Uy, Initial residual = 6.068e-06, Final residual = 6.068e-06, No Iterations 0
GAMG:  Solving for p, Initial residual = 1.54093e-06, Final residual = 7.06613e-08, No Iterations 1
time step continuity errors : sum local = 2.13546e-09, global = -6.47935e-11, cumulative = -6.48946e-07
GAMG:  Solving for p, Initial residual = 1.36575e-06, Final residual = 5.46444e-08, No Iterations 1
time step continuity errors : sum local = 1.65141e-09, global = -1.47538e-10, cumulative = -6.49094e-07
GAMG:  Solving for p, Initial residual = 1.4315e-06, Final residual = 5.7413e-08, No Iterations 1
time step continuity errors : sum local = 1.73508e-09, global = -1.70119e-10, cumulative = -6.49264e-07
GAMG:  Solving for p, Initial residual = 1.51634e-06, Final residual = 5.76113e-08, No Iterations 1
time step continuity errors : sum local = 1.74107e-09, global = -1.39534e-10, cumulative = -6.49403e-07
GAMG:  Solving for p, Initial residual = 1.60427e-06, Final residual = 5.95916e-08, No Iterations 1
time step continuity errors : sum local = 1.80092e-09, global = 5.4944e-12, cumulative = -6.49398e-07
ExecutionTime = 69.22 s  ClockTime = 70 s

Time = 4.98

Courant Number mean: 0.126819 max: 0.269417
Bad Mood
Bad Mood
smoothSolver:  Solving for Ux, Initial residual = 7.74276e-09, Final residual = 7.74276e-09, No Iterations 0
smoothSolver:  Solving for Uy, Initial residual = 6.96916e-06, Final residual = 6.96916e-06, No Iterations 0
GAMG:  Solving for p, Initial residual = 1.7326e-06, Final residual = 7.88995e-08, No Iterations 1
time step continuity errors : sum local = 2.38443e-09, global = 7.2736e-11, cumulative = -6.49325e-07
GAMG:  Solving for p, Initial residual = 1.59138e-06, Final residual = 5.76253e-08, No Iterations 1
time step continuity errors : sum local = 1.7415e-09, global = 1.10924e-10, cumulative = -6.49214e-07
GAMG:  Solving for p, Initial residual = 1.66162e-06, Final residual = 6.33893e-08, No Iterations 1
time step continuity errors : sum local = 1.91569e-09, global = 1.65804e-10, cumulative = -6.49048e-07
GAMG:  Solving for p, Initial residual = 1.72915e-06, Final residual = 6.2267e-08, No Iterations 1
time step continuity errors : sum local = 1.88178e-09, global = 1.15907e-10, cumulative = -6.48932e-07
GAMG:  Solving for p, Initial residual = 1.79459e-06, Final residual = 6.47812e-08, No Iterations 1
time step continuity errors : sum local = 1.95776e-09, global = 9.52293e-13, cumulative = -6.48931e-07
ExecutionTime = 69.22 s  ClockTime = 70 s

Time = 4.99

Courant Number mean: 0.126819 max: 0.269417
Bad Mood
Bad Mood
smoothSolver:  Solving for Ux, Initial residual = 8.19231e-09, Final residual = 8.19231e-09, No Iterations 0
smoothSolver:  Solving for Uy, Initial residual = 7.67937e-06, Final residual = 7.67937e-06, No Iterations 0
GAMG:  Solving for p, Initial residual = 1.88185e-06, Final residual = 8.35247e-08, No Iterations 1
time step continuity errors : sum local = 2.5242e-09, global = -6.38414e-11, cumulative = -6.48995e-07
GAMG:  Solving for p, Initial residual = 1.72779e-06, Final residual = 6.00632e-08, No Iterations 1
time step continuity errors : sum local = 1.81517e-09, global = -6.54174e-11, cumulative = -6.49061e-07
GAMG:  Solving for p, Initial residual = 1.80398e-06, Final residual = 6.56214e-08, No Iterations 1
time step continuity errors : sum local = 1.98315e-09, global = -1.52596e-10, cumulative = -6.49213e-07
GAMG:  Solving for p, Initial residual = 1.87585e-06, Final residual = 6.44781e-08, No Iterations 1
time step continuity errors : sum local = 1.9486e-09, global = -7.99492e-11, cumulative = -6.49293e-07
GAMG:  Solving for p, Initial residual = 1.94884e-06, Final residual = 6.5969e-08, No Iterations 1
time step continuity errors : sum local = 1.99365e-09, global = -8.59355e-12, cumulative = -6.49302e-07
ExecutionTime = 69.22 s  ClockTime = 70 s

Time = 5

Courant Number mean: 0.126819 max: 0.269417
Bad Mood
Bad Mood
smoothSolver:  Solving for Ux, Initial residual = 8.82205e-09, Final residual = 8.82205e-09, No Iterations 0
smoothSolver:  Solving for Uy, Initial residual = 8.33126e-06, Final residual = 8.33126e-06, No Iterations 0
GAMG:  Solving for p, Initial residual = 2.00599e-06, Final residual = 8.64179e-08, No Iterations 1
time step continuity errors : sum local = 2.61164e-09, global = 4.59547e-11, cumulative = -6.49256e-07
GAMG:  Solving for p, Initial residual = 1.87349e-06, Final residual = 6.21556e-08, No Iterations 1
time step continuity errors : sum local = 1.87841e-09, global = -9.46276e-12, cumulative = -6.49265e-07
GAMG:  Solving for p, Initial residual = 1.92603e-06, Final residual = 6.65208e-08, No Iterations 1
time step continuity errors : sum local = 2.01033e-09, global = 1.06666e-10, cumulative = -6.49159e-07
GAMG:  Solving for p, Initial residual = 1.97191e-06, Final residual = 6.56431e-08, No Iterations 1
time step continuity errors : sum local = 1.9838e-09, global = 1.93808e-11, cumulative = -6.49139e-07
GAMG:  Solving for p, Initial residual = 2.0144e-06, Final residual = 6.59176e-08, No Iterations 1
time step continuity errors : sum local = 1.9921e-09, global = 1.63658e-11, cumulative = -6.49123e-07
ExecutionTime = 69.22 s  ClockTime = 70 s

End

Finalising parallel run
