/*---------------------------------------------------------------------------*\
| =========                 |                                                 |
| \\      /  F ield         | OpenFOAM: The Open Source CFD Toolbox           |
|  \\    /   O peration     | Version:  5.0                                   |
|   \\  /    A nd           | Web:      www.OpenFOAM.org                      |
|    \\/     M anipulation  |                                                 |
\*---------------------------------------------------------------------------*/
Build  : 5.0-dbb428a3a855
Exec   : AnonNewtonianIcoFoam -parallel
Date   : Oct 24 2017
Time   : 16:43:19
Host   : "hermes-N552VW"
PID    : 9337
I/O    : uncollated
Case   : /home/hermes/Desktop/gitDPD/DPDCFD/poiseuilleflow
nProcs : 2
Slaves : 1("hermes-N552VW.9338")
Pstream initialized with:
    floatTransfer      : 0
    nProcsSimpleSum    : 0
    commsType          : nonBlocking
    polling iterations : 0
sigFpe : Enabling floating point exception trapping (FOAM_SIGFPE).
fileModificationChecking : Monitoring run-time modified files using timeStampMaster (fileModificationSkew 10)
allowSystemOperations : Allowing user-supplied system call operations

// * * * * * * * * * * * * * * * * * * * * * * * * * * * * * * * * * * * * * //
Create time

Create mesh, no clear-out for time = 0


PISO: Operating solver in PISO mode

Reading field p

Reading field U

Hey! I am faking the viscosity 

Reading/calculating face flux field phi

Selecting incompressible transport model CrossPowerLaw

Starting time loop

Time = 0.001

Courant Number mean: 0.02 max: 0.02
smoothSolver:  Solving for Ux, Initial residual = 1, Final residual = 7.91088e-06, No Iterations 26
smoothSolver:  Solving for Uy, Initial residual = 0.999938, Final residual = 9.18816e-06, No Iterations 20
GAMG:  Solving for p, Initial residual = 1, Final residual = 0.0869833, No Iterations 4
time step continuity errors : sum local = 2.34635e-05, global = -8.89816e-06, cumulative = -8.89816e-06
GAMG:  Solving for p, Initial residual = 0.253704, Final residual = 0.0234994, No Iterations 4
time step continuity errors : sum local = 1.83067e-05, global = 6.65345e-06, cumulative = -2.24471e-06
GAMG:  Solving for p, Initial residual = 0.303413, Final residual = 0.0127851, No Iterations 6
time step continuity errors : sum local = 2.26125e-06, global = 4.74791e-07, cumulative = -1.76992e-06
GAMG:  Solving for p, Initial residual = 0.137002, Final residual = 0.0085359, No Iterations 5
time step continuity errors : sum local = 1.44083e-06, global = -3.72464e-07, cumulative = -2.14238e-06
GAMG:  Solving for p, Initial residual = 0.17453, Final residual = 6.06272e-07, No Iterations 18
time step continuity errors : sum local = 4.44631e-11, global = 8.25743e-12, cumulative = -2.14237e-06
ExecutionTime = 0.01 s  ClockTime = 0 s

Time = 0.002

Courant Number mean: 0.0200551 max: 0.0214405
smoothSolver:  Solving for Ux, Initial residual = 0.751803, Final residual = 7.41055e-06, No Iterations 23
smoothSolver:  Solving for Uy, Initial residual = 0.150397, Final residual = 6.92178e-06, No Iterations 21
GAMG:  Solving for p, Initial residual = 0.857061, Final residual = 0.0804331, No Iterations 3
time step continuity errors : sum local = 3.60641e-06, global = -7.21527e-07, cumulative = -2.8639e-06
GAMG:  Solving for p, Initial residual = 0.217099, Final residual = 0.0104309, No Iterations 4
time step continuity errors : sum local = 6.5002e-07, global = -2.10373e-07, cumulative = -3.07427e-06
GAMG:  Solving for p, Initial residual = 0.318631, Final residual = 0.0195406, No Iterations 4
time step continuity errors : sum local = 4.54135e-07, global = -4.37013e-08, cumulative = -3.11798e-06
GAMG:  Solving for p, Initial residual = 0.257864, Final residual = 0.0179738, No Iterations 4
time step continuity errors : sum local = 2.9297e-07, global = -5.6799e-08, cumulative = -3.17478e-06
GAMG:  Solving for p, Initial residual = 0.25228, Final residual = 6.92037e-07, No Iterations 18
time step continuity errors : sum local = 6.67035e-12, global = -1.28313e-12, cumulative = -3.17478e-06
ExecutionTime = 0.03 s  ClockTime = 0 s

Time = 0.003

Courant Number mean: 0.0200619 max: 0.0212841
smoothSolver:  Solving for Ux, Initial residual = 0.203644, Final residual = 7.33236e-06, No Iterations 20
smoothSolver:  Solving for Uy, Initial residual = 0.0394972, Final residual = 7.18198e-06, No Iterations 17
GAMG:  Solving for p, Initial residual = 0.508576, Final residual = 0.0451547, No Iterations 3
time step continuity errors : sum local = 3.18221e-07, global = -4.19297e-08, cumulative = -3.21671e-06
GAMG:  Solving for p, Initial residual = 0.2478, Final residual = 0.0168779, No Iterations 5
time step continuity errors : sum local = 6.12482e-08, global = -3.02048e-10, cumulative = -3.21701e-06
GAMG:  Solving for p, Initial residual = 0.179928, Final residual = 0.0104797, No Iterations 4
time step continuity errors : sum local = 3.13882e-08, global = 2.73245e-09, cumulative = -3.21428e-06
GAMG:  Solving for p, Initial residual = 0.0776912, Final residual = 0.00525229, No Iterations 4
time step continuity errors : sum local = 2.13736e-08, global = 3.98927e-09, cumulative = -3.21029e-06
GAMG:  Solving for p, Initial residual = 0.0467768, Final residual = 9.00302e-07, No Iterations 16
time step continuity errors : sum local = 3.91423e-12, global = 2.15615e-13, cumulative = -3.21029e-06
ExecutionTime = 0.04 s  ClockTime = 0 s

Time = 0.004

Courant Number mean: 0.0200605 max: 0.0211506
smoothSolver:  Solving for Ux, Initial residual = 0.116268, Final residual = 6.24447e-06, No Iterations 19
smoothSolver:  Solving for Uy, Initial residual = 0.0255696, Final residual = 6.92607e-06, No Iterations 17
GAMG:  Solving for p, Initial residual = 0.392008, Final residual = 0.0341868, No Iterations 4
time step continuity errors : sum local = 1.2157e-07, global = -1.04662e-09, cumulative = -3.21133e-06
GAMG:  Solving for p, Initial residual = 0.0898112, Final residual = 0.00677719, No Iterations 4
time step continuity errors : sum local = 1.99849e-08, global = 5.62252e-09, cumulative = -3.20571e-06
GAMG:  Solving for p, Initial residual = 0.0819757, Final residual = 0.00536221, No Iterations 4
time step continuity errors : sum local = 1.20757e-08, global = 3.34342e-09, cumulative = -3.20237e-06
GAMG:  Solving for p, Initial residual = 0.0498129, Final residual = 0.00367866, No Iterations 3
time step continuity errors : sum local = 8.09797e-09, global = 1.74207e-09, cumulative = -3.20062e-06
GAMG:  Solving for p, Initial residual = 0.0319824, Final residual = 7.30739e-07, No Iterations 13
time step continuity errors : sum local = 1.6456e-12, global = 9.8487e-14, cumulative = -3.20062e-06
ExecutionTime = 0.04 s  ClockTime = 0 s

Time = 0.005

Courant Number mean: 0.0200563 max: 0.0210162
smoothSolver:  Solving for Ux, Initial residual = 0.0847391, Final residual = 8.85327e-06, No Iterations 18
smoothSolver:  Solving for Uy, Initial residual = 0.0275768, Final residual = 9.8809e-06, No Iterations 17
GAMG:  Solving for p, Initial residual = 0.283426, Final residual = 0.016485, No Iterations 4
time step continuity errors : sum local = 3.01931e-08, global = -6.76492e-09, cumulative = -3.20739e-06
GAMG:  Solving for p, Initial residual = 0.062009, Final residual = 0.00482878, No Iterations 4
time step continuity errors : sum local = 6.83721e-09, global = 2.27775e-09, cumulative = -3.20511e-06
GAMG:  Solving for p, Initial residual = 0.0285436, Final residual = 0.000782599, No Iterations 6
time step continuity errors : sum local = 1.09467e-09, global = 1.98207e-10, cumulative = -3.20491e-06
GAMG:  Solving for p, Initial residual = 0.0186044, Final residual = 0.00106343, No Iterations 3
time step continuity errors : sum local = 1.43794e-09, global = 9.94259e-12, cumulative = -3.2049e-06
GAMG:  Solving for p, Initial residual = 0.0139446, Final residual = 6.8997e-07, No Iterations 13
time step continuity errors : sum local = 9.50423e-13, global = 1.85281e-14, cumulative = -3.2049e-06
ExecutionTime = 0.05 s  ClockTime = 0 s

Time = 0.006

Courant Number mean: 0.0200512 max: 0.0208873
smoothSolver:  Solving for Ux, Initial residual = 0.0692839, Final residual = 8.99191e-06, No Iterations 18
smoothSolver:  Solving for Uy, Initial residual = 0.0277015, Final residual = 7.11534e-06, No Iterations 18
GAMG:  Solving for p, Initial residual = 0.237805, Final residual = 0.0186434, No Iterations 3
time step continuity errors : sum local = 2.20466e-08, global = -4.2222e-09, cumulative = -3.20913e-06
GAMG:  Solving for p, Initial residual = 0.0437331, Final residual = 0.00378216, No Iterations 4
time step continuity errors : sum local = 4.07353e-09, global = 8.40392e-10, cumulative = -3.20829e-06
GAMG:  Solving for p, Initial residual = 0.0158807, Final residual = 0.000517433, No Iterations 6
time step continuity errors : sum local = 5.65498e-10, global = 7.01887e-11, cumulative = -3.20822e-06
GAMG:  Solving for p, Initial residual = 0.00947019, Final residual = 0.000349323, No Iterations 5
time step continuity errors : sum local = 3.80331e-10, global = 5.03628e-11, cumulative = -3.20817e-06
GAMG:  Solving for p, Initial residual = 0.00737607, Final residual = 3.47513e-07, No Iterations 13
time step continuity errors : sum local = 3.81539e-13, global = 3.37727e-14, cumulative = -3.20817e-06
ExecutionTime = 0.06 s  ClockTime = 0 s

Time = 0.007

Courant Number mean: 0.0200461 max: 0.0207739
smoothSolver:  Solving for Ux, Initial residual = 0.061178, Final residual = 9.76086e-06, No Iterations 18
smoothSolver:  Solving for Uy, Initial residual = 0.0288762, Final residual = 7.54045e-06, No Iterations 18
GAMG:  Solving for p, Initial residual = 0.167922, Final residual = 0.0100965, No Iterations 3
time step continuity errors : sum local = 9.98879e-09, global = -2.32813e-09, cumulative = -3.21049e-06
GAMG:  Solving for p, Initial residual = 0.0324499, Final residual = 0.00313189, No Iterations 3
time step continuity errors : sum local = 2.89535e-09, global = -6.22782e-10, cumulative = -3.21112e-06
GAMG:  Solving for p, Initial residual = 0.0101776, Final residual = 0.000529355, No Iterations 4
time step continuity errors : sum local = 4.84112e-10, global = 1.09781e-10, cumulative = -3.21101e-06
GAMG:  Solving for p, Initial residual = 0.00604719, Final residual = 0.000456268, No Iterations 4
time step continuity errors : sum local = 4.19021e-10, global = 4.85585e-11, cumulative = -3.21096e-06
GAMG:  Solving for p, Initial residual = 0.00468015, Final residual = 3.27528e-07, No Iterations 13
time step continuity errors : sum local = 3.01809e-13, global = 2.80295e-15, cumulative = -3.21096e-06
ExecutionTime = 0.07 s  ClockTime = 0 s

Time = 0.008

Courant Number mean: 0.0200414 max: 0.0206763
smoothSolver:  Solving for Ux, Initial residual = 0.0577645, Final residual = 6.54007e-06, No Iterations 19
smoothSolver:  Solving for Uy, Initial residual = 0.0292348, Final residual = 7.71946e-06, No Iterations 18
GAMG:  Solving for p, Initial residual = 0.125399, Final residual = 0.00625922, No Iterations 3
time step continuity errors : sum local = 5.4355e-09, global = -1.40311e-09, cumulative = -3.21236e-06
GAMG:  Solving for p, Initial residual = 0.0260791, Final residual = 0.00227107, No Iterations 3
time step continuity errors : sum local = 1.85896e-09, global = -4.25731e-10, cumulative = -3.21279e-06
GAMG:  Solving for p, Initial residual = 0.00940281, Final residual = 0.00088712, No Iterations 4
time step continuity errors : sum local = 7.23318e-10, global = 8.56408e-11, cumulative = -3.2127e-06
GAMG:  Solving for p, Initial residual = 0.00440893, Final residual = 0.000260287, No Iterations 4
time step continuity errors : sum local = 2.14618e-10, global = 3.75151e-11, cumulative = -3.21266e-06
GAMG:  Solving for p, Initial residual = 0.00307929, Final residual = 8.63225e-07, No Iterations 13
time step continuity errors : sum local = 7.14543e-13, global = -1.7934e-14, cumulative = -3.21266e-06
ExecutionTime = 0.08 s  ClockTime = 0 s

Time = 0.009

Courant Number mean: 0.0200372 max: 0.0205935
smoothSolver:  Solving for Ux, Initial residual = 0.0561511, Final residual = 6.87761e-06, No Iterations 19
smoothSolver:  Solving for Uy, Initial residual = 0.0290385, Final residual = 7.73413e-06, No Iterations 18
GAMG:  Solving for p, Initial residual = 0.100952, Final residual = 0.00674326, No Iterations 3
time step continuity errors : sum local = 5.30309e-09, global = -7.41818e-10, cumulative = -3.21341e-06
GAMG:  Solving for p, Initial residual = 0.0238354, Final residual = 0.00127645, No Iterations 4
time step continuity errors : sum local = 9.39689e-10, global = -9.49502e-11, cumulative = -3.2135e-06
GAMG:  Solving for p, Initial residual = 0.0084952, Final residual = 0.00064551, No Iterations 4
time step continuity errors : sum local = 4.71754e-10, global = -6.55294e-11, cumulative = -3.21357e-06
GAMG:  Solving for p, Initial residual = 0.00366394, Final residual = 0.000351445, No Iterations 4
time step continuity errors : sum local = 2.6005e-10, global = -2.26801e-11, cumulative = -3.21359e-06
GAMG:  Solving for p, Initial residual = 0.00269605, Final residual = 3.27516e-07, No Iterations 12
time step continuity errors : sum local = 2.44011e-13, global = -3.9159e-14, cumulative = -3.21359e-06
ExecutionTime = 0.08 s  ClockTime = 0 s

Time = 0.01

Courant Number mean: 0.0200335 max: 0.0205233
smoothSolver:  Solving for Ux, Initial residual = 0.055266, Final residual = 7.12402e-06, No Iterations 19
smoothSolver:  Solving for Uy, Initial residual = 0.0285489, Final residual = 7.64036e-06, No Iterations 18
GAMG:  Solving for p, Initial residual = 0.0870547, Final residual = 0.00330141, No Iterations 4
time step continuity errors : sum local = 2.34767e-09, global = 5.58597e-10, cumulative = -3.21303e-06
GAMG:  Solving for p, Initial residual = 0.022969, Final residual = 0.000952308, No Iterations 4
time step continuity errors : sum local = 6.24116e-10, global = -1.92307e-11, cumulative = -3.21305e-06
GAMG:  Solving for p, Initial residual = 0.00728013, Final residual = 0.00066882, No Iterations 5
time step continuity errors : sum local = 4.36824e-10, global = -5.76911e-12, cumulative = -3.21305e-06
GAMG:  Solving for p, Initial residual = 0.00298942, Final residual = 0.00023172, No Iterations 4
time step continuity errors : sum local = 1.53612e-10, global = -2.95435e-11, cumulative = -3.21308e-06
GAMG:  Solving for p, Initial residual = 0.00237069, Final residual = 7.05008e-07, No Iterations 10
time step continuity errors : sum local = 4.72222e-13, global = -4.17412e-14, cumulative = -3.21308e-06
ExecutionTime = 0.09 s  ClockTime = 0 s

Time = 0.011

Courant Number mean: 0.0200302 max: 0.0204637
smoothSolver:  Solving for Ux, Initial residual = 0.0546855, Final residual = 7.33388e-06, No Iterations 19
smoothSolver:  Solving for Uy, Initial residual = 0.0279251, Final residual = 7.4915e-06, No Iterations 18
GAMG:  Solving for p, Initial residual = 0.0783787, Final residual = 0.00639032, No Iterations 3
time step continuity errors : sum local = 4.09035e-09, global = 2.43006e-10, cumulative = -3.21284e-06
GAMG:  Solving for p, Initial residual = 0.0213458, Final residual = 0.00116791, No Iterations 4
time step continuity errors : sum local = 6.90871e-10, global = -3.57668e-11, cumulative = -3.21288e-06
GAMG:  Solving for p, Initial residual = 0.00838726, Final residual = 0.000617738, No Iterations 4
time step continuity errors : sum local = 3.56328e-10, global = -5.34155e-11, cumulative = -3.21293e-06
GAMG:  Solving for p, Initial residual = 0.00299579, Final residual = 0.000150331, No Iterations 4
time step continuity errors : sum local = 8.92003e-11, global = -1.65957e-11, cumulative = -3.21295e-06
GAMG:  Solving for p, Initial residual = 0.00223294, Final residual = 6.49539e-07, No Iterations 10
time step continuity errors : sum local = 3.89857e-13, global = -7.08335e-14, cumulative = -3.21295e-06
ExecutionTime = 0.1 s  ClockTime = 0 s

Time = 0.012

Courant Number mean: 0.0200273 max: 0.0204128
smoothSolver:  Solving for Ux, Initial residual = 0.0540315, Final residual = 7.48362e-06, No Iterations 19
smoothSolver:  Solving for Uy, Initial residual = 0.0272996, Final residual = 7.3208e-06, No Iterations 18
GAMG:  Solving for p, Initial residual = 0.0716795, Final residual = 0.00696507, No Iterations 3
time step continuity errors : sum local = 3.99792e-09, global = 3.6868e-11, cumulative = -3.21291e-06
GAMG:  Solving for p, Initial residual = 0.0202835, Final residual = 0.00115621, No Iterations 4
time step continuity errors : sum local = 6.11098e-10, global = -2.76255e-11, cumulative = -3.21294e-06
GAMG:  Solving for p, Initial residual = 0.00812563, Final residual = 0.000578978, No Iterations 4
time step continuity errors : sum local = 2.98372e-10, global = -4.66369e-11, cumulative = -3.21298e-06
GAMG:  Solving for p, Initial residual = 0.00281046, Final residual = 0.000165391, No Iterations 4
time step continuity errors : sum local = 8.77338e-11, global = -2.37252e-11, cumulative = -3.21301e-06
GAMG:  Solving for p, Initial residual = 0.00210848, Final residual = 7.41709e-07, No Iterations 10
time step continuity errors : sum local = 3.98005e-13, global = -7.57759e-14, cumulative = -3.21301e-06
ExecutionTime = 0.11 s  ClockTime = 0 s

Time = 0.013

Courant Number mean: 0.0200248 max: 0.0203691
smoothSolver:  Solving for Ux, Initial residual = 0.0533303, Final residual = 7.57751e-06, No Iterations 19
smoothSolver:  Solving for Uy, Initial residual = 0.0266728, Final residual = 7.13556e-06, No Iterations 18
GAMG:  Solving for p, Initial residual = 0.0665863, Final residual = 0.00610694, No Iterations 4
time step continuity errors : sum local = 3.13842e-09, global = 6.63166e-10, cumulative = -3.21235e-06
GAMG:  Solving for p, Initial residual = 0.0229111, Final residual = 0.00199559, No Iterations 3
time step continuity errors : sum local = 9.30769e-10, global = -1.74643e-10, cumulative = -3.21252e-06
GAMG:  Solving for p, Initial residual = 0.00798464, Final residual = 0.000667724, No Iterations 4
time step continuity errors : sum local = 3.10143e-10, global = -5.22594e-11, cumulative = -3.21257e-06
GAMG:  Solving for p, Initial residual = 0.00298196, Final residual = 0.000117663, No Iterations 5
time step continuity errors : sum local = 5.60671e-11, global = -1.84371e-11, cumulative = -3.21259e-06
GAMG:  Solving for p, Initial residual = 0.00191115, Final residual = 5.0687e-07, No Iterations 10
time step continuity errors : sum local = 2.43307e-13, global = -2.22356e-14, cumulative = -3.21259e-06
ExecutionTime = 0.12 s  ClockTime = 0 s

Time = 0.014

Courant Number mean: 0.0200226 max: 0.0203314
smoothSolver:  Solving for Ux, Initial residual = 0.0526484, Final residual = 7.64814e-06, No Iterations 19
smoothSolver:  Solving for Uy, Initial residual = 0.0260629, Final residual = 6.9615e-06, No Iterations 18
GAMG:  Solving for p, Initial residual = 0.0626902, Final residual = 0.00602228, No Iterations 4
time step continuity errors : sum local = 2.76989e-09, global = 5.99892e-10, cumulative = -3.21199e-06
GAMG:  Solving for p, Initial residual = 0.0225681, Final residual = 0.00203602, No Iterations 3
time step continuity errors : sum local = 8.47826e-10, global = -1.63524e-10, cumulative = -3.21215e-06
GAMG:  Solving for p, Initial residual = 0.00778839, Final residual = 0.000630945, No Iterations 4
time step continuity errors : sum local = 2.6165e-10, global = -4.22092e-11, cumulative = -3.2122e-06
GAMG:  Solving for p, Initial residual = 0.00292337, Final residual = 0.000104276, No Iterations 5
time step continuity errors : sum local = 4.4463e-11, global = -1.37531e-11, cumulative = -3.21221e-06
GAMG:  Solving for p, Initial residual = 0.00182988, Final residual = 4.60192e-07, No Iterations 10
time step continuity errors : sum local = 1.97475e-13, global = -2.14928e-14, cumulative = -3.21221e-06
ExecutionTime = 0.12 s  ClockTime = 0 s

Time = 0.015

Courant Number mean: 0.0200206 max: 0.0202986
smoothSolver:  Solving for Ux, Initial residual = 0.0519398, Final residual = 7.66671e-06, No Iterations 19
smoothSolver:  Solving for Uy, Initial residual = 0.0254531, Final residual = 6.78685e-06, No Iterations 18
GAMG:  Solving for p, Initial residual = 0.0595655, Final residual = 0.00566457, No Iterations 4
time step continuity errors : sum local = 2.3313e-09, global = 5.16737e-10, cumulative = -3.21169e-06
GAMG:  Solving for p, Initial residual = 0.0215495, Final residual = 0.00199782, No Iterations 3
time step continuity errors : sum local = 7.4576e-10, global = -1.28863e-10, cumulative = -3.21182e-06
GAMG:  Solving for p, Initial residual = 0.00747344, Final residual = 0.000577824, No Iterations 4
time step continuity errors : sum local = 2.14888e-10, global = -3.373e-11, cumulative = -3.21186e-06
GAMG:  Solving for p, Initial residual = 0.00283079, Final residual = 0.000102138, No Iterations 5
time step continuity errors : sum local = 3.90001e-11, global = -1.23175e-11, cumulative = -3.21187e-06
GAMG:  Solving for p, Initial residual = 0.00175402, Final residual = 4.5807e-07, No Iterations 10
time step continuity errors : sum local = 1.76003e-13, global = -2.47065e-14, cumulative = -3.21187e-06
ExecutionTime = 0.13 s  ClockTime = 0 s

Time = 0.016

Courant Number mean: 0.0200189 max: 0.0202699
smoothSolver:  Solving for Ux, Initial residual = 0.0511603, Final residual = 7.64624e-06, No Iterations 19
smoothSolver:  Solving for Uy, Initial residual = 0.0248731, Final residual = 6.62078e-06, No Iterations 18
GAMG:  Solving for p, Initial residual = 0.0569361, Final residual = 0.00516288, No Iterations 4
time step continuity errors : sum local = 1.90443e-09, global = 4.31169e-10, cumulative = -3.21144e-06
GAMG:  Solving for p, Initial residual = 0.0204287, Final residual = 0.00195035, No Iterations 3
time step continuity errors : sum local = 6.54274e-10, global = -1.12657e-10, cumulative = -3.21155e-06
GAMG:  Solving for p, Initial residual = 0.00712629, Final residual = 0.000522999, No Iterations 4
time step continuity errors : sum local = 1.74891e-10, global = -2.70535e-11, cumulative = -3.21158e-06
GAMG:  Solving for p, Initial residual = 0.00273018, Final residual = 9.37075e-05, No Iterations 5
time step continuity errors : sum local = 3.21393e-11, global = -9.73363e-12, cumulative = -3.21159e-06
GAMG:  Solving for p, Initial residual = 0.00167217, Final residual = 4.9522e-07, No Iterations 10
time step continuity errors : sum local = 1.7079e-13, global = -2.29576e-14, cumulative = -3.21159e-06
ExecutionTime = 0.14 s  ClockTime = 0 s

Time = 0.017

Courant Number mean: 0.0200173 max: 0.0202446
smoothSolver:  Solving for Ux, Initial residual = 0.0503621, Final residual = 7.61539e-06, No Iterations 19
smoothSolver:  Solving for Uy, Initial residual = 0.0243527, Final residual = 6.47317e-06, No Iterations 18
GAMG:  Solving for p, Initial residual = 0.0546726, Final residual = 0.00469769, No Iterations 4
time step continuity errors : sum local = 1.55618e-09, global = 3.59231e-10, cumulative = -3.21123e-06
GAMG:  Solving for p, Initial residual = 0.0194478, Final residual = 0.00192092, No Iterations 3
time step continuity errors : sum local = 5.79733e-10, global = -1.00639e-10, cumulative = -3.21133e-06
GAMG:  Solving for p, Initial residual = 0.00683988, Final residual = 0.000476945, No Iterations 4
time step continuity errors : sum local = 1.43611e-10, global = -2.1911e-11, cumulative = -3.21135e-06
GAMG:  Solving for p, Initial residual = 0.00263448, Final residual = 0.000259872, No Iterations 4
time step continuity errors : sum local = 8.02176e-11, global = 2.24782e-11, cumulative = -3.21133e-06
GAMG:  Solving for p, Initial residual = 0.00174577, Final residual = 3.64116e-07, No Iterations 11
time step continuity errors : sum local = 1.12935e-13, global = -2.24653e-14, cumulative = -3.21133e-06
ExecutionTime = 0.14 s  ClockTime = 0 s

Time = 0.018

Courant Number mean: 0.0200159 max: 0.0202222
smoothSolver:  Solving for Ux, Initial residual = 0.049499, Final residual = 7.5589e-06, No Iterations 19
smoothSolver:  Solving for Uy, Initial residual = 0.0238776, Final residual = 6.33737e-06, No Iterations 18
GAMG:  Solving for p, Initial residual = 0.052737, Final residual = 0.00396812, No Iterations 4
time step continuity errors : sum local = 1.18285e-09, global = 2.68405e-10, cumulative = -3.21106e-06
GAMG:  Solving for p, Initial residual = 0.0183075, Final residual = 0.00112279, No Iterations 4
time step continuity errors : sum local = 3.05641e-10, global = 4.26126e-11, cumulative = -3.21102e-06
GAMG:  Solving for p, Initial residual = 0.00612784, Final residual = 0.000322262, No Iterations 7
time step continuity errors : sum local = 8.77322e-11, global = -4.16717e-12, cumulative = -3.21102e-06
GAMG:  Solving for p, Initial residual = 0.00215569, Final residual = 8.78786e-05, No Iterations 5
time step continuity errors : sum local = 2.44474e-11, global = -4.19079e-12, cumulative = -3.21102e-06
GAMG:  Solving for p, Initial residual = 0.00158029, Final residual = 3.92819e-07, No Iterations 10
time step continuity errors : sum local = 1.09786e-13, global = -1.55198e-14, cumulative = -3.21102e-06
ExecutionTime = 0.15 s  ClockTime = 0 s

Time = 0.019

Courant Number mean: 0.0200147 max: 0.0202022
smoothSolver:  Solving for Ux, Initial residual = 0.0486389, Final residual = 7.49795e-06, No Iterations 19
smoothSolver:  Solving for Uy, Initial residual = 0.0234595, Final residual = 9.8138e-06, No Iterations 17
GAMG:  Solving for p, Initial residual = 0.0508118, Final residual = 0.00367711, No Iterations 4
time step continuity errors : sum local = 9.8851e-10, global = 2.25515e-10, cumulative = -3.2108e-06
GAMG:  Solving for p, Initial residual = 0.0174851, Final residual = 0.00108506, No Iterations 4
time step continuity errors : sum local = 2.66951e-10, global = 3.41767e-11, cumulative = -3.21077e-06
GAMG:  Solving for p, Initial residual = 0.00589563, Final residual = 0.000583005, No Iterations 6
time step continuity errors : sum local = 1.43481e-10, global = -2.3602e-11, cumulative = -3.21079e-06
GAMG:  Solving for p, Initial residual = 0.00253219, Final residual = 9.44172e-05, No Iterations 5
time step continuity errors : sum local = 2.37079e-11, global = -7.00622e-12, cumulative = -3.2108e-06
GAMG:  Solving for p, Initial residual = 0.00150393, Final residual = 6.59668e-07, No Iterations 10
time step continuity errors : sum local = 1.66462e-13, global = -4.20281e-14, cumulative = -3.2108e-06
ExecutionTime = 0.16 s  ClockTime = 0 s

Time = 0.02

Courant Number mean: 0.0200136 max: 0.0201844
smoothSolver:  Solving for Ux, Initial residual = 0.0477604, Final residual = 7.42427e-06, No Iterations 19
smoothSolver:  Solving for Uy, Initial residual = 0.0230782, Final residual = 9.64476e-06, No Iterations 17
GAMG:  Solving for p, Initial residual = 0.0494616, Final residual = 0.0040845, No Iterations 3
time step continuity errors : sum local = 9.91938e-10, global = 2.27346e-10, cumulative = -3.21057e-06
GAMG:  Solving for p, Initial residual = 0.0153686, Final residual = 0.000685049, No Iterations 4
time step continuity errors : sum local = 1.54061e-10, global = 3.40189e-11, cumulative = -3.21053e-06
GAMG:  Solving for p, Initial residual = 0.00546018, Final residual = 0.000245571, No Iterations 4
time step continuity errors : sum local = 5.43393e-11, global = -8.02597e-12, cumulative = -3.21054e-06
GAMG:  Solving for p, Initial residual = 0.00214572, Final residual = 0.00013121, No Iterations 5
time step continuity errors : sum local = 2.97279e-11, global = -9.90119e-12, cumulative = -3.21055e-06
GAMG:  Solving for p, Initial residual = 0.00152961, Final residual = 4.07472e-07, No Iterations 10
time step continuity errors : sum local = 9.29936e-14, global = -1.24759e-14, cumulative = -3.21055e-06
ExecutionTime = 0.17 s  ClockTime = 0 s

Time = 0.021

Courant Number mean: 0.0200126 max: 0.0201683
smoothSolver:  Solving for Ux, Initial residual = 0.0468507, Final residual = 7.33163e-06, No Iterations 19
smoothSolver:  Solving for Uy, Initial residual = 0.0227439, Final residual = 9.50157e-06, No Iterations 17
GAMG:  Solving for p, Initial residual = 0.0483544, Final residual = 0.00374334, No Iterations 3
time step continuity errors : sum local = 8.22684e-10, global = 2.17649e-10, cumulative = -3.21033e-06
GAMG:  Solving for p, Initial residual = 0.0148107, Final residual = 0.000670168, No Iterations 4
time step continuity errors : sum local = 1.36646e-10, global = 3.12315e-11, cumulative = -3.2103e-06
GAMG:  Solving for p, Initial residual = 0.00531887, Final residual = 0.000280903, No Iterations 4
time step continuity errors : sum local = 5.64006e-11, global = -7.51783e-12, cumulative = -3.21031e-06
GAMG:  Solving for p, Initial residual = 0.00212031, Final residual = 0.000206892, No Iterations 3
time step continuity errors : sum local = 4.24848e-11, global = -1.92685e-11, cumulative = -3.21033e-06
GAMG:  Solving for p, Initial residual = 0.00157734, Final residual = 9.95583e-07, No Iterations 10
time step continuity errors : sum local = 2.0567e-13, global = -4.02332e-14, cumulative = -3.21033e-06
ExecutionTime = 0.18 s  ClockTime = 0 s

Time = 0.022

Courant Number mean: 0.0200117 max: 0.0201539
smoothSolver:  Solving for Ux, Initial residual = 0.0459796, Final residual = 7.244e-06, No Iterations 19
smoothSolver:  Solving for Uy, Initial residual = 0.0224371, Final residual = 9.37257e-06, No Iterations 17
GAMG:  Solving for p, Initial residual = 0.0474636, Final residual = 0.00341465, No Iterations 3
time step continuity errors : sum local = 6.80331e-10, global = 2.05095e-10, cumulative = -3.21013e-06
GAMG:  Solving for p, Initial residual = 0.0140732, Final residual = 0.00060746, No Iterations 4
time step continuity errors : sum local = 1.12151e-10, global = 2.48806e-11, cumulative = -3.2101e-06
GAMG:  Solving for p, Initial residual = 0.00521839, Final residual = 0.00027888, No Iterations 4
time step continuity errors : sum local = 5.08332e-11, global = -6.97161e-12, cumulative = -3.21011e-06
GAMG:  Solving for p, Initial residual = 0.00207909, Final residual = 8.39411e-05, No Iterations 5
time step continuity errors : sum local = 1.56491e-11, global = -5.15313e-12, cumulative = -3.21011e-06
GAMG:  Solving for p, Initial residual = 0.00143249, Final residual = 6.62494e-07, No Iterations 10
time step continuity errors : sum local = 1.24271e-13, global = -3.33884e-14, cumulative = -3.21011e-06
ExecutionTime = 0.18 s  ClockTime = 0 s

Time = 0.023

Courant Number mean: 0.0200109 max: 0.0201408
smoothSolver:  Solving for Ux, Initial residual = 0.0450629, Final residual = 7.12633e-06, No Iterations 19
smoothSolver:  Solving for Uy, Initial residual = 0.0221815, Final residual = 9.26556e-06, No Iterations 17
GAMG:  Solving for p, Initial residual = 0.0465497, Final residual = 0.00288842, No Iterations 3
time step continuity errors : sum local = 5.22175e-10, global = 1.5725e-10, cumulative = -3.20996e-06
GAMG:  Solving for p, Initial residual = 0.0134405, Final residual = 0.000580603, No Iterations 5
time step continuity errors : sum local = 9.77118e-11, global = 2.97752e-12, cumulative = -3.20995e-06
GAMG:  Solving for p, Initial residual = 0.0048728, Final residual = 0.000270083, No Iterations 7
time step continuity errors : sum local = 4.49076e-11, global = -9.52816e-13, cumulative = -3.20995e-06
GAMG:  Solving for p, Initial residual = 0.0019835, Final residual = 0.000112073, No Iterations 5
time step continuity errors : sum local = 1.89782e-11, global = -6.32178e-12, cumulative = -3.20996e-06
GAMG:  Solving for p, Initial residual = 0.00141238, Final residual = 6.45733e-07, No Iterations 10
time step continuity errors : sum local = 1.10075e-13, global = -2.04593e-14, cumulative = -3.20996e-06
ExecutionTime = 0.19 s  ClockTime = 0 s

Time = 0.024

Courant Number mean: 0.0200101 max: 0.020129
smoothSolver:  Solving for Ux, Initial residual = 0.0442523, Final residual = 7.03454e-06, No Iterations 19
smoothSolver:  Solving for Uy, Initial residual = 0.0219581, Final residual = 9.16942e-06, No Iterations 17
GAMG:  Solving for p, Initial residual = 0.0457673, Final residual = 0.00301887, No Iterations 3
time step continuity errors : sum local = 4.96318e-10, global = 1.42249e-10, cumulative = -3.20982e-06
GAMG:  Solving for p, Initial residual = 0.0133615, Final residual = 0.000573013, No Iterations 5
time step continuity errors : sum local = 8.76736e-11, global = 2.59536e-12, cumulative = -3.20981e-06
GAMG:  Solving for p, Initial residual = 0.00485299, Final residual = 0.000271675, No Iterations 7
time step continuity errors : sum local = 4.10936e-11, global = -1.22134e-12, cumulative = -3.20982e-06
GAMG:  Solving for p, Initial residual = 0.00197875, Final residual = 0.000112395, No Iterations 5
time step continuity errors : sum local = 1.73191e-11, global = -5.25006e-12, cumulative = -3.20982e-06
GAMG:  Solving for p, Initial residual = 0.00139324, Final residual = 5.58376e-07, No Iterations 10
time step continuity errors : sum local = 8.6606e-14, global = -1.30142e-14, cumulative = -3.20982e-06
ExecutionTime = 0.2 s  ClockTime = 0 s

Time = 0.025

Courant Number mean: 0.0200094 max: 0.0201182
smoothSolver:  Solving for Ux, Initial residual = 0.0434595, Final residual = 6.92442e-06, No Iterations 19
smoothSolver:  Solving for Uy, Initial residual = 0.0218005, Final residual = 9.08993e-06, No Iterations 17
GAMG:  Solving for p, Initial residual = 0.0451577, Final residual = 0.00296969, No Iterations 3
time step continuity errors : sum local = 4.4431e-10, global = 1.18392e-10, cumulative = -3.2097e-06
GAMG:  Solving for p, Initial residual = 0.0126857, Final residual = 0.000627537, No Iterations 5
time step continuity errors : sum local = 8.767e-11, global = 2.73492e-12, cumulative = -3.2097e-06
GAMG:  Solving for p, Initial residual = 0.00485183, Final residual = 0.0002538, No Iterations 7
time step continuity errors : sum local = 3.49808e-11, global = -1.07565e-12, cumulative = -3.2097e-06
GAMG:  Solving for p, Initial residual = 0.00197149, Final residual = 0.000114045, No Iterations 5
time step continuity errors : sum local = 1.60039e-11, global = -4.83751e-12, cumulative = -3.20971e-06
GAMG:  Solving for p, Initial residual = 0.00137589, Final residual = 7.4032e-07, No Iterations 10
time step continuity errors : sum local = 1.0458e-13, global = -1.92055e-14, cumulative = -3.20971e-06
ExecutionTime = 0.21 s  ClockTime = 0 s

Time = 0.026

Courant Number mean: 0.0200088 max: 0.0201085
smoothSolver:  Solving for Ux, Initial residual = 0.042714, Final residual = 6.81596e-06, No Iterations 19
smoothSolver:  Solving for Uy, Initial residual = 0.0216726, Final residual = 9.02306e-06, No Iterations 17
GAMG:  Solving for p, Initial residual = 0.0446474, Final residual = 0.00287808, No Iterations 3
time step continuity errors : sum local = 3.923e-10, global = 1.05935e-10, cumulative = -3.2096e-06
GAMG:  Solving for p, Initial residual = 0.0125131, Final residual = 0.000633362, No Iterations 5
time step continuity errors : sum local = 8.07426e-11, global = 2.57828e-12, cumulative = -3.2096e-06
GAMG:  Solving for p, Initial residual = 0.00477422, Final residual = 0.000242874, No Iterations 7
time step continuity errors : sum local = 3.05406e-11, global = -9.78477e-13, cumulative = -3.2096e-06
GAMG:  Solving for p, Initial residual = 0.00195452, Final residual = 0.000113589, No Iterations 5
time step continuity errors : sum local = 1.45341e-11, global = -4.28432e-12, cumulative = -3.2096e-06
GAMG:  Solving for p, Initial residual = 0.00136366, Final residual = 8.62713e-07, No Iterations 10
time step continuity errors : sum local = 1.11112e-13, global = -2.05567e-14, cumulative = -3.2096e-06
ExecutionTime = 0.21 s  ClockTime = 0 s

Time = 0.027

Courant Number mean: 0.0200082 max: 0.0200995
smoothSolver:  Solving for Ux, Initial residual = 0.0420146, Final residual = 6.70826e-06, No Iterations 19
smoothSolver:  Solving for Uy, Initial residual = 0.021569, Final residual = 8.97213e-06, No Iterations 17
GAMG:  Solving for p, Initial residual = 0.0442269, Final residual = 0.00341614, No Iterations 3
time step continuity errors : sum local = 4.24617e-10, global = 1.09627e-10, cumulative = -3.20949e-06
GAMG:  Solving for p, Initial residual = 0.0133976, Final residual = 0.000814031, No Iterations 4
time step continuity errors : sum local = 9.45942e-11, global = 2.7757e-11, cumulative = -3.20947e-06
GAMG:  Solving for p, Initial residual = 0.0048629, Final residual = 0.000469762, No Iterations 5
time step continuity errors : sum local = 5.41317e-11, global = -3.7769e-12, cumulative = -3.20947e-06
GAMG:  Solving for p, Initial residual = 0.00229818, Final residual = 0.000166913, No Iterations 6
time step continuity errors : sum local = 1.94594e-11, global = -1.75811e-12, cumulative = -3.20947e-06
GAMG:  Solving for p, Initial residual = 0.00140494, Final residual = 4.21008e-07, No Iterations 11
time step continuity errors : sum local = 4.95221e-14, global = -3.96078e-15, cumulative = -3.20947e-06
ExecutionTime = 0.22 s  ClockTime = 0 s

Time = 0.028

Courant Number mean: 0.0200076 max: 0.0200914
smoothSolver:  Solving for Ux, Initial residual = 0.0413506, Final residual = 6.59865e-06, No Iterations 19
smoothSolver:  Solving for Uy, Initial residual = 0.0215059, Final residual = 8.94017e-06, No Iterations 17
GAMG:  Solving for p, Initial residual = 0.0438517, Final residual = 0.0031371, No Iterations 3
time step continuity errors : sum local = 3.55801e-10, global = 9.55071e-11, cumulative = -3.20938e-06
GAMG:  Solving for p, Initial residual = 0.0132212, Final residual = 0.00118883, No Iterations 4
time step continuity errors : sum local = 1.2644e-10, global = 2.3018e-11, cumulative = -3.20935e-06
GAMG:  Solving for p, Initial residual = 0.00500501, Final residual = 0.000457146, No Iterations 5
time step continuity errors : sum local = 4.81276e-11, global = -5.47194e-14, cumulative = -3.20935e-06
GAMG:  Solving for p, Initial residual = 0.0024946, Final residual = 0.000162734, No Iterations 5
time step continuity errors : sum local = 1.73525e-11, global = -5.17406e-12, cumulative = -3.20936e-06
GAMG:  Solving for p, Initial residual = 0.00142162, Final residual = 6.7549e-07, No Iterations 10
time step continuity errors : sum local = 7.24751e-14, global = -2.56551e-14, cumulative = -3.20936e-06
ExecutionTime = 0.23 s  ClockTime = 0 s

Time = 0.029

Courant Number mean: 0.0200071 max: 0.020084
smoothSolver:  Solving for Ux, Initial residual = 0.0407766, Final residual = 6.5151e-06, No Iterations 19
smoothSolver:  Solving for Uy, Initial residual = 0.0214718, Final residual = 8.9129e-06, No Iterations 17
GAMG:  Solving for p, Initial residual = 0.0435972, Final residual = 0.00319841, No Iterations 3
time step continuity errors : sum local = 3.314e-10, global = 8.87334e-11, cumulative = -3.20927e-06
GAMG:  Solving for p, Initial residual = 0.0130021, Final residual = 0.00114117, No Iterations 4
time step continuity errors : sum local = 1.10841e-10, global = 1.98287e-11, cumulative = -3.20925e-06
GAMG:  Solving for p, Initial residual = 0.00499352, Final residual = 0.000252696, No Iterations 4
time step continuity errors : sum local = 2.43065e-11, global = -7.0256e-12, cumulative = -3.20926e-06
GAMG:  Solving for p, Initial residual = 0.00220739, Final residual = 0.000199437, No Iterations 4
time step continuity errors : sum local = 1.94352e-11, global = -1.0165e-12, cumulative = -3.20926e-06
GAMG:  Solving for p, Initial residual = 0.00149734, Final residual = 3.93599e-07, No Iterations 11
time step continuity errors : sum local = 3.8623e-14, global = -7.40093e-15, cumulative = -3.20926e-06
ExecutionTime = 0.24 s  ClockTime = 0 s

Time = 0.03

Courant Number mean: 0.0200067 max: 0.0200772
smoothSolver:  Solving for Ux, Initial residual = 0.0401901, Final residual = 6.42652e-06, No Iterations 19
smoothSolver:  Solving for Uy, Initial residual = 0.0214606, Final residual = 8.89031e-06, No Iterations 17
GAMG:  Solving for p, Initial residual = 0.0433219, Final residual = 0.00282429, No Iterations 3
time step continuity errors : sum local = 2.6737e-10, global = 7.39923e-11, cumulative = -3.20918e-06
GAMG:  Solving for p, Initial residual = 0.0125944, Final residual = 0.000613578, No Iterations 5
time step continuity errors : sum local = 5.46671e-11, global = 1.35424e-12, cumulative = -3.20918e-06
GAMG:  Solving for p, Initial residual = 0.00454804, Final residual = 0.000385543, No Iterations 6
time step continuity errors : sum local = 3.39127e-11, global = -7.17658e-12, cumulative = -3.20919e-06
GAMG:  Solving for p, Initial residual = 0.00211466, Final residual = 9.36023e-05, No Iterations 5
time step continuity errors : sum local = 8.34154e-12, global = -2.62357e-12, cumulative = -3.20919e-06
GAMG:  Solving for p, Initial residual = 0.00133183, Final residual = 5.77663e-07, No Iterations 10
time step continuity errors : sum local = 5.18343e-14, global = 8.25324e-15, cumulative = -3.20919e-06
ExecutionTime = 0.24 s  ClockTime = 0 s

Time = 0.031

Courant Number mean: 0.0200062 max: 0.020071
smoothSolver:  Solving for Ux, Initial residual = 0.0396788, Final residual = 9.99635e-06, No Iterations 18
smoothSolver:  Solving for Uy, Initial residual = 0.0214634, Final residual = 8.87479e-06, No Iterations 17
GAMG:  Solving for p, Initial residual = 0.0431782, Final residual = 0.0028317, No Iterations 3
time step continuity errors : sum local = 2.45187e-10, global = 6.84056e-11, cumulative = -3.20912e-06
GAMG:  Solving for p, Initial residual = 0.0126978, Final residual = 0.000641755, No Iterations 5
time step continuity errors : sum local = 5.22872e-11, global = 1.60497e-12, cumulative = -3.20912e-06
GAMG:  Solving for p, Initial residual = 0.00460689, Final residual = 0.000366165, No Iterations 6
time step continuity errors : sum local = 2.94852e-11, global = -6.40516e-12, cumulative = -3.20913e-06
GAMG:  Solving for p, Initial residual = 0.00209309, Final residual = 0.000106889, No Iterations 5
time step continuity errors : sum local = 8.7168e-12, global = -2.95892e-12, cumulative = -3.20913e-06
GAMG:  Solving for p, Initial residual = 0.00133065, Final residual = 2.99903e-07, No Iterations 11
time step continuity errors : sum local = 2.46188e-14, global = -2.97701e-15, cumulative = -3.20913e-06
ExecutionTime = 0.25 s  ClockTime = 0 s

Time = 0.032

Courant Number mean: 0.0200058 max: 0.0200653
smoothSolver:  Solving for Ux, Initial residual = 0.0392126, Final residual = 9.90009e-06, No Iterations 18
smoothSolver:  Solving for Uy, Initial residual = 0.0214726, Final residual = 8.87522e-06, No Iterations 17
GAMG:  Solving for p, Initial residual = 0.0430235, Final residual = 0.00283017, No Iterations 3
time step continuity errors : sum local = 2.24257e-10, global = 6.26962e-11, cumulative = -3.20907e-06
GAMG:  Solving for p, Initial residual = 0.0126734, Final residual = 0.00125388, No Iterations 4
time step continuity errors : sum local = 9.34973e-11, global = 1.42508e-11, cumulative = -3.20905e-06
GAMG:  Solving for p, Initial residual = 0.00491041, Final residual = 0.000419387, No Iterations 5
time step continuity errors : sum local = 3.09432e-11, global = -1.09076e-12, cumulative = -3.20906e-06
GAMG:  Solving for p, Initial residual = 0.00247482, Final residual = 0.000159346, No Iterations 5
time step continuity errors : sum local = 1.18986e-11, global = -3.24495e-12, cumulative = -3.20906e-06
GAMG:  Solving for p, Initial residual = 0.00142524, Final residual = 8.00751e-07, No Iterations 11
time step continuity errors : sum local = 6.01459e-14, global = 5.29598e-15, cumulative = -3.20906e-06
ExecutionTime = 0.26 s  ClockTime = 0 s

Time = 0.033

Courant Number mean: 0.0200055 max: 0.0200601
smoothSolver:  Solving for Ux, Initial residual = 0.0387835, Final residual = 9.81009e-06, No Iterations 18
smoothSolver:  Solving for Uy, Initial residual = 0.0214872, Final residual = 8.88177e-06, No Iterations 17
GAMG:  Solving for p, Initial residual = 0.0428822, Final residual = 0.00282167, No Iterations 3
time step continuity errors : sum local = 2.04695e-10, global = 5.78143e-11, cumulative = -3.209e-06
GAMG:  Solving for p, Initial residual = 0.0126259, Final residual = 0.00125251, No Iterations 4
time step continuity errors : sum local = 8.55228e-11, global = 1.26818e-11, cumulative = -3.20899e-06
GAMG:  Solving for p, Initial residual = 0.00496708, Final residual = 0.000272743, No Iterations 5
time step continuity errors : sum local = 1.84292e-11, global = -4.63914e-12, cumulative = -3.20899e-06
GAMG:  Solving for p, Initial residual = 0.00228395, Final residual = 0.000194401, No Iterations 5
time step continuity errors : sum local = 1.3291e-11, global = -1.36224e-12, cumulative = -3.20899e-06
GAMG:  Solving for p, Initial residual = 0.00152142, Final residual = 8.45891e-07, No Iterations 11
time step continuity errors : sum local = 5.8224e-14, global = -4.07473e-15, cumulative = -3.20899e-06
ExecutionTime = 0.27 s  ClockTime = 0 s

Time = 0.034

Courant Number mean: 0.0200051 max: 0.0200554
smoothSolver:  Solving for Ux, Initial residual = 0.0383393, Final residual = 9.71235e-06, No Iterations 18
smoothSolver:  Solving for Uy, Initial residual = 0.0215049, Final residual = 8.88975e-06, No Iterations 17
GAMG:  Solving for p, Initial residual = 0.0427787, Final residual = 0.00256987, No Iterations 3
time step continuity errors : sum local = 1.70688e-10, global = 5.03579e-11, cumulative = -3.20894e-06
GAMG:  Solving for p, Initial residual = 0.0125601, Final residual = 0.000660785, No Iterations 5
time step continuity errors : sum local = 4.14087e-11, global = 1.45943e-12, cumulative = -3.20894e-06
GAMG:  Solving for p, Initial residual = 0.00449839, Final residual = 0.000322691, No Iterations 6
time step continuity errors : sum local = 1.99779e-11, global = -4.5915e-12, cumulative = -3.20895e-06
GAMG:  Solving for p, Initial residual = 0.00203126, Final residual = 8.18873e-05, No Iterations 5
time step continuity errors : sum local = 5.12978e-12, global = -1.73184e-12, cumulative = -3.20895e-06
GAMG:  Solving for p, Initial residual = 0.00132806, Final residual = 5.5307e-07, No Iterations 10
time step continuity errors : sum local = 3.4875e-14, global = 1.98739e-15, cumulative = -3.20895e-06
ExecutionTime = 0.28 s  ClockTime = 0 s

Time = 0.035

Courant Number mean: 0.0200048 max: 0.0200511
smoothSolver:  Solving for Ux, Initial residual = 0.0379863, Final residual = 9.63921e-06, No Iterations 18
smoothSolver:  Solving for Uy, Initial residual = 0.0215247, Final residual = 8.89879e-06, No Iterations 17
GAMG:  Solving for p, Initial residual = 0.0427429, Final residual = 0.0025344, No Iterations 3
time step continuity errors : sum local = 1.54226e-10, global = 4.5557e-11, cumulative = -3.2089e-06
GAMG:  Solving for p, Initial residual = 0.0124745, Final residual = 0.000651525, No Iterations 5
time step continuity errors : sum local = 3.7425e-11, global = 1.23904e-12, cumulative = -3.2089e-06
GAMG:  Solving for p, Initial residual = 0.00448901, Final residual = 0.000326307, No Iterations 6
time step continuity errors : sum local = 1.85172e-11, global = -4.15704e-12, cumulative = -3.20891e-06
GAMG:  Solving for p, Initial residual = 0.00202925, Final residual = 8.3877e-05, No Iterations 5
time step continuity errors : sum local = 4.81568e-12, global = -1.60298e-12, cumulative = -3.20891e-06
GAMG:  Solving for p, Initial residual = 0.00132737, Final residual = 9.83153e-07, No Iterations 9
time step continuity errors : sum local = 5.6816e-14, global = -3.90822e-15, cumulative = -3.20891e-06
ExecutionTime = 0.28 s  ClockTime = 1 s

Time = 0.036

Courant Number mean: 0.0200045 max: 0.0200472
smoothSolver:  Solving for Ux, Initial residual = 0.0376477, Final residual = 9.56629e-06, No Iterations 18
smoothSolver:  Solving for Uy, Initial residual = 0.0215481, Final residual = 8.90927e-06, No Iterations 17
GAMG:  Solving for p, Initial residual = 0.0426963, Final residual = 0.00248469, No Iterations 3
time step continuity errors : sum local = 1.38572e-10, global = 4.13876e-11, cumulative = -3.20887e-06
GAMG:  Solving for p, Initial residual = 0.0124542, Final residual = 0.000652114, No Iterations 5
time step continuity errors : sum local = 3.43493e-11, global = 1.146e-12, cumulative = -3.20886e-06
GAMG:  Solving for p, Initial residual = 0.00447176, Final residual = 0.000320595, No Iterations 6
time step continuity errors : sum local = 1.6682e-11, global = -3.76217e-12, cumulative = -3.20887e-06
GAMG:  Solving for p, Initial residual = 0.0020204, Final residual = 8.48242e-05, No Iterations 5
time step continuity errors : sum local = 4.46484e-12, global = -1.469e-12, cumulative = -3.20887e-06
GAMG:  Solving for p, Initial residual = 0.00132727, Final residual = 9.48328e-07, No Iterations 9
time step continuity errors : sum local = 5.02413e-14, global = -3.41566e-15, cumulative = -3.20887e-06
ExecutionTime = 0.29 s  ClockTime = 1 s

Time = 0.037

Courant Number mean: 0.0200043 max: 0.0200436
smoothSolver:  Solving for Ux, Initial residual = 0.0373372, Final residual = 9.50761e-06, No Iterations 18
smoothSolver:  Solving for Uy, Initial residual = 0.0215735, Final residual = 8.92094e-06, No Iterations 17
GAMG:  Solving for p, Initial residual = 0.0426683, Final residual = 0.00266663, No Iterations 3
time step continuity errors : sum local = 1.36338e-10, global = 4.27954e-11, cumulative = -3.20883e-06
GAMG:  Solving for p, Initial residual = 0.0121098, Final residual = 0.000814716, No Iterations 4
time step continuity errors : sum local = 3.95609e-11, global = 1.27383e-11, cumulative = -3.20881e-06
GAMG:  Solving for p, Initial residual = 0.00462855, Final residual = 0.000377974, No Iterations 5
time step continuity errors : sum local = 1.79869e-11, global = -3.8389e-12, cumulative = -3.20882e-06
GAMG:  Solving for p, Initial residual = 0.00224941, Final residual = 0.00018451, No Iterations 5
time step continuity errors : sum local = 8.89057e-12, global = 1.18204e-13, cumulative = -3.20882e-06
GAMG:  Solving for p, Initial residual = 0.00147357, Final residual = 5.10382e-07, No Iterations 11
time step continuity errors : sum local = 2.48138e-14, global = -3.35409e-15, cumulative = -3.20882e-06
ExecutionTime = 0.3 s  ClockTime = 1 s

Time = 0.038

Courant Number mean: 0.020004 max: 0.0200403
smoothSolver:  Solving for Ux, Initial residual = 0.0370359, Final residual = 9.44365e-06, No Iterations 18
smoothSolver:  Solving for Uy, Initial residual = 0.0216019, Final residual = 8.93349e-06, No Iterations 17
GAMG:  Solving for p, Initial residual = 0.042619, Final residual = 0.00312337, No Iterations 3
time step continuity errors : sum local = 1.46401e-10, global = 4.36499e-11, cumulative = -3.20877e-06
GAMG:  Solving for p, Initial residual = 0.0129814, Final residual = 0.000830105, No Iterations 5
time step continuity errors : sum local = 3.69757e-11, global = 7.51396e-13, cumulative = -3.20877e-06
GAMG:  Solving for p, Initial residual = 0.0046797, Final residual = 0.000354247, No Iterations 6
time step continuity errors : sum local = 1.54892e-11, global = -3.5427e-12, cumulative = -3.20878e-06
GAMG:  Solving for p, Initial residual = 0.00212592, Final residual = 0.000161798, No Iterations 5
time step continuity errors : sum local = 7.15543e-12, global = -2.14153e-12, cumulative = -3.20878e-06
GAMG:  Solving for p, Initial residual = 0.00138599, Final residual = 6.71843e-07, No Iterations 9
time step continuity errors : sum local = 2.99383e-14, global = -1.3342e-14, cumulative = -3.20878e-06
ExecutionTime = 0.31 s  ClockTime = 1 s

Time = 0.039

Courant Number mean: 0.0200038 max: 0.0200372
smoothSolver:  Solving for Ux, Initial residual = 0.0367976, Final residual = 9.41542e-06, No Iterations 18
smoothSolver:  Solving for Uy, Initial residual = 0.021629, Final residual = 8.94559e-06, No Iterations 17
GAMG:  Solving for p, Initial residual = 0.0426536, Final residual = 0.00270921, No Iterations 3
time step continuity errors : sum local = 1.16505e-10, global = 3.63073e-11, cumulative = -3.20874e-06
GAMG:  Solving for p, Initial residual = 0.0121376, Final residual = 0.000814467, No Iterations 4
time step continuity errors : sum local = 3.32865e-11, global = 1.06952e-11, cumulative = -3.20873e-06
GAMG:  Solving for p, Initial residual = 0.00462013, Final residual = 0.000270841, No Iterations 4
time step continuity errors : sum local = 1.08461e-11, global = -1.51458e-12, cumulative = -3.20873e-06
GAMG:  Solving for p, Initial residual = 0.00217163, Final residual = 0.000182023, No Iterations 4
time step continuity errors : sum local = 7.38332e-12, global = -3.56982e-14, cumulative = -3.20873e-06
GAMG:  Solving for p, Initial residual = 0.00146039, Final residual = 3.23861e-07, No Iterations 11
time step continuity errors : sum local = 1.32432e-14, global = -2.15478e-15, cumulative = -3.20873e-06
ExecutionTime = 0.32 s  ClockTime = 1 s

Time = 0.04

Courant Number mean: 0.0200036 max: 0.0200344
smoothSolver:  Solving for Ux, Initial residual = 0.036523, Final residual = 9.36772e-06, No Iterations 18
smoothSolver:  Solving for Uy, Initial residual = 0.0216569, Final residual = 8.95759e-06, No Iterations 17
GAMG:  Solving for p, Initial residual = 0.0425823, Final residual = 0.00263676, No Iterations 3
time step continuity errors : sum local = 1.04021e-10, global = 3.24176e-11, cumulative = -3.2087e-06
GAMG:  Solving for p, Initial residual = 0.0122244, Final residual = 0.000847106, No Iterations 4
time step continuity errors : sum local = 3.17851e-11, global = 1.00126e-11, cumulative = -3.20869e-06
GAMG:  Solving for p, Initial residual = 0.00462402, Final residual = 0.0003247, No Iterations 4
time step continuity errors : sum local = 1.19359e-11, global = -8.18878e-13, cumulative = -3.20869e-06
GAMG:  Solving for p, Initial residual = 0.00224396, Final residual = 0.000119017, No Iterations 5
time step continuity errors : sum local = 4.42853e-12, global = -1.68768e-12, cumulative = -3.20869e-06
GAMG:  Solving for p, Initial residual = 0.00141089, Final residual = 2.34826e-07, No Iterations 11
time step continuity errors : sum local = 8.81181e-15, global = -1.69902e-15, cumulative = -3.20869e-06
ExecutionTime = 0.32 s  ClockTime = 1 s

Time = 0.041

Courant Number mean: 0.0200034 max: 0.0200317
smoothSolver:  Solving for Ux, Initial residual = 0.0362988, Final residual = 9.33649e-06, No Iterations 18
smoothSolver:  Solving for Uy, Initial residual = 0.0216893, Final residual = 8.97123e-06, No Iterations 17
GAMG:  Solving for p, Initial residual = 0.0426516, Final residual = 0.00268413, No Iterations 3
time step continuity errors : sum local = 9.71617e-11, global = 3.11788e-11, cumulative = -3.20866e-06
GAMG:  Solving for p, Initial residual = 0.0122112, Final residual = 0.000829126, No Iterations 4
time step continuity errors : sum local = 2.85593e-11, global = 9.21956e-12, cumulative = -3.20865e-06
GAMG:  Solving for p, Initial residual = 0.00464679, Final residual = 0.000303945, No Iterations 5
time step continuity errors : sum local = 1.02545e-11, global = -1.79134e-12, cumulative = -3.20866e-06
GAMG:  Solving for p, Initial residual = 0.00225633, Final residual = 0.000126624, No Iterations 5
time step continuity errors : sum local = 4.3246e-12, global = -9.19249e-13, cumulative = -3.20866e-06
GAMG:  Solving for p, Initial residual = 0.00145757, Final residual = 6.62416e-07, No Iterations 12
time step continuity errors : sum local = 2.2818e-14, global = 3.0636e-15, cumulative = -3.20866e-06
ExecutionTime = 0.33 s  ClockTime = 1 s

Time = 0.042

Courant Number mean: 0.0200032 max: 0.0200293
smoothSolver:  Solving for Ux, Initial residual = 0.0360346, Final residual = 9.28668e-06, No Iterations 18
smoothSolver:  Solving for Uy, Initial residual = 0.021721, Final residual = 8.98451e-06, No Iterations 17
GAMG:  Solving for p, Initial residual = 0.0426553, Final residual = 0.00258672, No Iterations 3
time step continuity errors : sum local = 8.59253e-11, global = 2.77146e-11, cumulative = -3.20863e-06
GAMG:  Solving for p, Initial residual = 0.012249, Final residual = 0.000857855, No Iterations 4
time step continuity errors : sum local = 2.71455e-11, global = 8.5663e-12, cumulative = -3.20862e-06
GAMG:  Solving for p, Initial residual = 0.00463162, Final residual = 0.000223138, No Iterations 5
time step continuity errors : sum local = 6.91342e-12, global = -1.91378e-12, cumulative = -3.20862e-06
GAMG:  Solving for p, Initial residual = 0.00218494, Final residual = 0.000204224, No Iterations 4
time step continuity errors : sum local = 6.40152e-12, global = 1.84482e-13, cumulative = -3.20862e-06
GAMG:  Solving for p, Initial residual = 0.00149399, Final residual = 6.70248e-07, No Iterations 10
time step continuity errors : sum local = 2.11963e-14, global = 2.36627e-15, cumulative = -3.20862e-06
ExecutionTime = 0.34 s  ClockTime = 1 s

Time = 0.043

Courant Number mean: 0.020003 max: 0.0200271
smoothSolver:  Solving for Ux, Initial residual = 0.0358348, Final residual = 9.2567e-06, No Iterations 18
smoothSolver:  Solving for Uy, Initial residual = 0.0217511, Final residual = 8.99702e-06, No Iterations 17
GAMG:  Solving for p, Initial residual = 0.0426419, Final residual = 0.00312608, No Iterations 3
time step continuity errors : sum local = 9.53172e-11, global = 2.96646e-11, cumulative = -3.20859e-06
GAMG:  Solving for p, Initial residual = 0.0134063, Final residual = 0.000751768, No Iterations 4
time step continuity errors : sum local = 2.18085e-11, global = 7.64491e-12, cumulative = -3.20858e-06
GAMG:  Solving for p, Initial residual = 0.00450401, Final residual = 0.000369334, No Iterations 5
time step continuity errors : sum local = 1.05231e-11, global = -8.54941e-13, cumulative = -3.20859e-06
GAMG:  Solving for p, Initial residual = 0.00224788, Final residual = 0.000112274, No Iterations 5
time step continuity errors : sum local = 3.23258e-12, global = -1.02857e-12, cumulative = -3.20859e-06
GAMG:  Solving for p, Initial residual = 0.00142922, Final residual = 6.12709e-07, No Iterations 13
time step continuity errors : sum local = 1.77844e-14, global = -1.95013e-15, cumulative = -3.20859e-06
ExecutionTime = 0.34 s  ClockTime = 1 s

Time = 0.044

Courant Number mean: 0.0200029 max: 0.0200251
smoothSolver:  Solving for Ux, Initial residual = 0.0356729, Final residual = 9.22363e-06, No Iterations 18
smoothSolver:  Solving for Uy, Initial residual = 0.021785, Final residual = 9.01047e-06, No Iterations 17
GAMG:  Solving for p, Initial residual = 0.0426964, Final residual = 0.00262971, No Iterations 3
time step continuity errors : sum local = 7.36137e-11, global = 2.44596e-11, cumulative = -3.20856e-06
GAMG:  Solving for p, Initial residual = 0.0122683, Final residual = 0.000840963, No Iterations 4
time step continuity errors : sum local = 2.24351e-11, global = 7.24657e-12, cumulative = -3.20855e-06
GAMG:  Solving for p, Initial residual = 0.00465233, Final residual = 0.000222186, No Iterations 5
time step continuity errors : sum local = 5.80314e-12, global = -1.67381e-12, cumulative = -3.20856e-06
GAMG:  Solving for p, Initial residual = 0.0021826, Final residual = 0.000203061, No Iterations 4
time step continuity errors : sum local = 5.36588e-12, global = 1.81342e-13, cumulative = -3.20856e-06
GAMG:  Solving for p, Initial residual = 0.00149953, Final residual = 9.8558e-07, No Iterations 9
time step continuity errors : sum local = 2.62755e-14, global = -2.38667e-15, cumulative = -3.20856e-06
ExecutionTime = 0.35 s  ClockTime = 1 s

Time = 0.045

Courant Number mean: 0.0200027 max: 0.0200232
smoothSolver:  Solving for Ux, Initial residual = 0.0355009, Final residual = 9.19593e-06, No Iterations 18
smoothSolver:  Solving for Uy, Initial residual = 0.021815, Final residual = 9.02275e-06, No Iterations 17
GAMG:  Solving for p, Initial residual = 0.0426982, Final residual = 0.00308287, No Iterations 3
time step continuity errors : sum local = 7.92343e-11, global = 2.51156e-11, cumulative = -3.20853e-06
GAMG:  Solving for p, Initial residual = 0.0134356, Final residual = 0.000756275, No Iterations 4
time step continuity errors : sum local = 1.85081e-11, global = 6.52746e-12, cumulative = -3.20852e-06
GAMG:  Solving for p, Initial residual = 0.00449497, Final residual = 0.000394633, No Iterations 5
time step continuity errors : sum local = 9.48257e-12, global = -6.65169e-13, cumulative = -3.20853e-06
GAMG:  Solving for p, Initial residual = 0.00228418, Final residual = 0.000120523, No Iterations 5
time step continuity errors : sum local = 2.92595e-12, global = -9.20076e-13, cumulative = -3.20853e-06
GAMG:  Solving for p, Initial residual = 0.00144134, Final residual = 9.54854e-07, No Iterations 13
time step continuity errors : sum local = 2.3371e-14, global = -2.43322e-15, cumulative = -3.20853e-06
ExecutionTime = 0.36 s  ClockTime = 1 s

Time = 0.046

Courant Number mean: 0.0200026 max: 0.0200214
smoothSolver:  Solving for Ux, Initial residual = 0.0353788, Final residual = 9.16932e-06, No Iterations 18
smoothSolver:  Solving for Uy, Initial residual = 0.0218494, Final residual = 9.03606e-06, No Iterations 17
GAMG:  Solving for p, Initial residual = 0.0427588, Final residual = 0.00314574, No Iterations 3
time step continuity errors : sum local = 7.42507e-11, global = 2.34397e-11, cumulative = -3.2085e-06
GAMG:  Solving for p, Initial residual = 0.0133276, Final residual = 0.000750344, No Iterations 4
time step continuity errors : sum local = 1.68571e-11, global = 5.75328e-12, cumulative = -3.2085e-06
GAMG:  Solving for p, Initial residual = 0.00459113, Final residual = 0.000406423, No Iterations 5
time step continuity errors : sum local = 8.96849e-12, global = -5.14256e-13, cumulative = -3.2085e-06
GAMG:  Solving for p, Initial residual = 0.00227439, Final residual = 0.000164248, No Iterations 5
time step continuity errors : sum local = 3.66296e-12, global = -6.92152e-13, cumulative = -3.2085e-06
GAMG:  Solving for p, Initial residual = 0.00152047, Final residual = 8.56763e-07, No Iterations 13
time step continuity errors : sum local = 1.92605e-14, global = -1.94162e-15, cumulative = -3.2085e-06
ExecutionTime = 0.37 s  ClockTime = 1 s

Time = 0.047

Courant Number mean: 0.0200025 max: 0.0200198
smoothSolver:  Solving for Ux, Initial residual = 0.0352461, Final residual = 9.14185e-06, No Iterations 18
smoothSolver:  Solving for Uy, Initial residual = 0.0218815, Final residual = 9.04872e-06, No Iterations 17
GAMG:  Solving for p, Initial residual = 0.0427942, Final residual = 0.00254308, No Iterations 3
time step continuity errors : sum local = 5.51243e-11, global = 1.85047e-11, cumulative = -3.20848e-06
GAMG:  Solving for p, Initial residual = 0.0123241, Final residual = 0.000858605, No Iterations 4
time step continuity errors : sum local = 1.77588e-11, global = 5.68085e-12, cumulative = -3.20847e-06
GAMG:  Solving for p, Initial residual = 0.00464797, Final residual = 0.00021794, No Iterations 5
time step continuity errors : sum local = 4.41163e-12, global = -1.21308e-12, cumulative = -3.20848e-06
GAMG:  Solving for p, Initial residual = 0.00219822, Final residual = 0.000215441, No Iterations 4
time step continuity errors : sum local = 4.41094e-12, global = 2.67566e-13, cumulative = -3.20848e-06
GAMG:  Solving for p, Initial residual = 0.00152393, Final residual = 8.18246e-07, No Iterations 10
time step continuity errors : sum local = 1.68991e-14, global = 5.81338e-16, cumulative = -3.20848e-06
ExecutionTime = 0.38 s  ClockTime = 1 s

Time = 0.048

Courant Number mean: 0.0200024 max: 0.0200184
smoothSolver:  Solving for Ux, Initial residual = 0.0351282, Final residual = 9.12749e-06, No Iterations 18
smoothSolver:  Solving for Uy, Initial residual = 0.021912, Final residual = 9.06072e-06, No Iterations 17
GAMG:  Solving for p, Initial residual = 0.0428009, Final residual = 0.00302306, No Iterations 3
time step continuity errors : sum local = 6.01892e-11, global = 1.9596e-11, cumulative = -3.20846e-06
GAMG:  Solving for p, Initial residual = 0.013524, Final residual = 0.000764051, No Iterations 4
time step continuity errors : sum local = 1.44985e-11, global = 5.14201e-12, cumulative = -3.20845e-06
GAMG:  Solving for p, Initial residual = 0.00448292, Final residual = 0.000341964, No Iterations 5
time step continuity errors : sum local = 6.3691e-12, global = -5.16827e-13, cumulative = -3.20845e-06
GAMG:  Solving for p, Initial residual = 0.00223255, Final residual = 0.00014231, No Iterations 5
time step continuity errors : sum local = 2.67797e-12, global = -5.75195e-13, cumulative = -3.20845e-06
GAMG:  Solving for p, Initial residual = 0.00147063, Final residual = 3.50179e-07, No Iterations 13
time step continuity errors : sum local = 6.64231e-15, global = -5.5306e-16, cumulative = -3.20845e-06
ExecutionTime = 0.38 s  ClockTime = 1 s

Time = 0.049

Courant Number mean: 0.0200023 max: 0.020017
smoothSolver:  Solving for Ux, Initial residual = 0.0350506, Final residual = 9.10689e-06, No Iterations 18
smoothSolver:  Solving for Uy, Initial residual = 0.0219461, Final residual = 9.07366e-06, No Iterations 17
GAMG:  Solving for p, Initial residual = 0.0428784, Final residual = 0.00308236, No Iterations 3
time step continuity errors : sum local = 5.63729e-11, global = 1.83568e-11, cumulative = -3.20843e-06
GAMG:  Solving for p, Initial residual = 0.0133929, Final residual = 0.000771354, No Iterations 4
time step continuity errors : sum local = 1.34511e-11, global = 4.58446e-12, cumulative = -3.20843e-06
GAMG:  Solving for p, Initial residual = 0.00459397, Final residual = 0.000389559, No Iterations 5
time step continuity errors : sum local = 6.66695e-12, global = -3.32794e-13, cumulative = -3.20843e-06
GAMG:  Solving for p, Initial residual = 0.00226671, Final residual = 0.000102702, No Iterations 5
time step continuity errors : sum local = 1.77564e-12, global = -4.11852e-13, cumulative = -3.20843e-06
GAMG:  Solving for p, Initial residual = 0.00143088, Final residual = 3.27391e-07, No Iterations 11
time step continuity errors : sum local = 5.70648e-15, global = -1.27651e-15, cumulative = -3.20843e-06
ExecutionTime = 0.39 s  ClockTime = 1 s

Time = 0.05

Courant Number mean: 0.0200022 max: 0.0200157
smoothSolver:  Solving for Ux, Initial residual = 0.0349604, Final residual = 9.09447e-06, No Iterations 18
smoothSolver:  Solving for Uy, Initial residual = 0.0219779, Final residual = 9.08603e-06, No Iterations 17
GAMG:  Solving for p, Initial residual = 0.0429126, Final residual = 0.00308802, No Iterations 3
time step continuity errors : sum local = 5.18881e-11, global = 1.66103e-11, cumulative = -3.20841e-06
GAMG:  Solving for p, Initial residual = 0.0135277, Final residual = 0.000751671, No Iterations 4
time step continuity errors : sum local = 1.20398e-11, global = 4.27284e-12, cumulative = -3.20841e-06
GAMG:  Solving for p, Initial residual = 0.00453588, Final residual = 0.000385368, No Iterations 5
time step continuity errors : sum local = 6.06004e-12, global = -3.70776e-13, cumulative = -3.20841e-06
GAMG:  Solving for p, Initial residual = 0.00229796, Final residual = 0.00015986, No Iterations 5
time step continuity errors : sum local = 2.53943e-12, global = -5.84358e-13, cumulative = -3.20841e-06
GAMG:  Solving for p, Initial residual = 0.00149215, Final residual = 8.245e-07, No Iterations 13
time step continuity errors : sum local = 1.32027e-14, global = -1.50869e-15, cumulative = -3.20841e-06
ExecutionTime = 0.4 s  ClockTime = 1 s

Time = 0.051

Courant Number mean: 0.0200021 max: 0.0200146
smoothSolver:  Solving for Ux, Initial residual = 0.0348958, Final residual = 9.07999e-06, No Iterations 18
smoothSolver:  Solving for Uy, Initial residual = 0.0220097, Final residual = 9.09815e-06, No Iterations 17
GAMG:  Solving for p, Initial residual = 0.0429649, Final residual = 0.00308594, No Iterations 3
time step continuity errors : sum local = 4.7642e-11, global = 1.56481e-11, cumulative = -3.20839e-06
GAMG:  Solving for p, Initial residual = 0.0134164, Final residual = 0.000805939, No Iterations 4
time step continuity errors : sum local = 1.18654e-11, global = 3.67665e-12, cumulative = -3.20839e-06
GAMG:  Solving for p, Initial residual = 0.00456613, Final residual = 0.000215208, No Iterations 5
time step continuity errors : sum local = 3.11015e-12, global = -9.61084e-13, cumulative = -3.20839e-06
GAMG:  Solving for p, Initial residual = 0.00220809, Final residual = 0.00013103, No Iterations 4
time step continuity errors : sum local = 1.91233e-12, global = -2.93637e-13, cumulative = -3.20839e-06
GAMG:  Solving for p, Initial residual = 0.00146836, Final residual = 9.71871e-07, No Iterations 9
time step continuity errors : sum local = 1.43028e-14, global = -1.26289e-15, cumulative = -3.20839e-06
ExecutionTime = 0.41 s  ClockTime = 1 s

Time = 0.052

Courant Number mean: 0.020002 max: 0.0200135
smoothSolver:  Solving for Ux, Initial residual = 0.0348179, Final residual = 9.07271e-06, No Iterations 18
smoothSolver:  Solving for Uy, Initial residual = 0.0220391, Final residual = 9.10951e-06, No Iterations 17
GAMG:  Solving for p, Initial residual = 0.0429837, Final residual = 0.00305388, No Iterations 3
time step continuity errors : sum local = 4.3322e-11, global = 1.40657e-11, cumulative = -3.20838e-06
GAMG:  Solving for p, Initial residual = 0.0135193, Final residual = 0.000783538, No Iterations 4
time step continuity errors : sum local = 1.06007e-11, global = 3.36833e-12, cumulative = -3.20837e-06
GAMG:  Solving for p, Initial residual = 0.0044438, Final residual = 0.000213965, No Iterations 5
time step continuity errors : sum local = 2.84189e-12, global = -8.90076e-13, cumulative = -3.20837e-06
GAMG:  Solving for p, Initial residual = 0.00221267, Final residual = 0.000146143, No Iterations 4
time step continuity errors : sum local = 1.96013e-12, global = -2.10832e-13, cumulative = -3.20837e-06
GAMG:  Solving for p, Initial residual = 0.00146249, Final residual = 8.91684e-07, No Iterations 10
time step continuity errors : sum local = 1.20586e-14, global = 2.25793e-15, cumulative = -3.20837e-06
ExecutionTime = 0.42 s  ClockTime = 1 s

Time = 0.053

Courant Number mean: 0.0200019 max: 0.0200125
smoothSolver:  Solving for Ux, Initial residual = 0.0347607, Final residual = 9.06277e-06, No Iterations 18
smoothSolver:  Solving for Uy, Initial residual = 0.0220701, Final residual = 9.12122e-06, No Iterations 17
GAMG:  Solving for p, Initial residual = 0.0430307, Final residual = 0.00298461, No Iterations 3
time step continuity errors : sum local = 3.89058e-11, global = 1.32969e-11, cumulative = -3.20836e-06
GAMG:  Solving for p, Initial residual = 0.013444, Final residual = 0.000822085, No Iterations 4
time step continuity errors : sum local = 1.02282e-11, global = 3.16176e-12, cumulative = -3.20836e-06
GAMG:  Solving for p, Initial residual = 0.00454745, Final residual = 0.000303868, No Iterations 5
time step continuity errors : sum local = 3.70934e-12, global = -8.18578e-14, cumulative = -3.20836e-06
GAMG:  Solving for p, Initial residual = 0.00220048, Final residual = 0.000105253, No Iterations 5
time step continuity errors : sum local = 1.29759e-12, global = -5.12123e-13, cumulative = -3.20836e-06
GAMG:  Solving for p, Initial residual = 0.00142772, Final residual = 9.24769e-07, No Iterations 10
time step continuity errors : sum local = 1.1491e-14, global = 1.97705e-15, cumulative = -3.20836e-06
ExecutionTime = 0.42 s  ClockTime = 1 s

Time = 0.054

Courant Number mean: 0.0200019 max: 0.0200116
smoothSolver:  Solving for Ux, Initial residual = 0.0347216, Final residual = 9.05915e-06, No Iterations 18
smoothSolver:  Solving for Uy, Initial residual = 0.0221029, Final residual = 9.13369e-06, No Iterations 17
GAMG:  Solving for p, Initial residual = 0.0431062, Final residual = 0.00251529, No Iterations 3
time step continuity errors : sum local = 3.01347e-11, global = 1.06904e-11, cumulative = -3.20835e-06
GAMG:  Solving for p, Initial residual = 0.0125598, Final residual = 0.000855101, No Iterations 4
time step continuity errors : sum local = 9.78977e-12, global = 3.24313e-12, cumulative = -3.20835e-06
GAMG:  Solving for p, Initial residual = 0.00463997, Final residual = 0.000235103, No Iterations 5
time step continuity errors : sum local = 2.63332e-12, global = -7.00436e-13, cumulative = -3.20835e-06
GAMG:  Solving for p, Initial residual = 0.00220373, Final residual = 0.000143113, No Iterations 4
time step continuity errors : sum local = 1.62087e-12, global = -1.41173e-13, cumulative = -3.20835e-06
GAMG:  Solving for p, Initial residual = 0.00146879, Final residual = 8.09001e-07, No Iterations 9
time step continuity errors : sum local = 9.24127e-15, global = -6.92299e-16, cumulative = -3.20835e-06
ExecutionTime = 0.43 s  ClockTime = 1 s

Time = 0.055

Courant Number mean: 0.0200018 max: 0.0200108
smoothSolver:  Solving for Ux, Initial residual = 0.0346609, Final residual = 9.04789e-06, No Iterations 18
smoothSolver:  Solving for Uy, Initial residual = 0.0221323, Final residual = 9.14494e-06, No Iterations 17
GAMG:  Solving for p, Initial residual = 0.0431362, Final residual = 0.0029674, No Iterations 3
time step continuity errors : sum local = 3.26719e-11, global = 1.10186e-11, cumulative = -3.20833e-06
GAMG:  Solving for p, Initial residual = 0.0135194, Final residual = 0.000801631, No Iterations 4
time step continuity errors : sum local = 8.42934e-12, global = 2.6821e-12, cumulative = -3.20833e-06
GAMG:  Solving for p, Initial residual = 0.00443887, Final residual = 0.000203848, No Iterations 5
time step continuity errors : sum local = 2.10276e-12, global = -6.64475e-13, cumulative = -3.20833e-06
GAMG:  Solving for p, Initial residual = 0.00222208, Final residual = 0.000127766, No Iterations 4
time step continuity errors : sum local = 1.33058e-12, global = -1.61624e-13, cumulative = -3.20833e-06
GAMG:  Solving for p, Initial residual = 0.00145129, Final residual = 6.63963e-07, No Iterations 10
time step continuity errors : sum local = 6.97152e-15, global = 1.09993e-15, cumulative = -3.20833e-06
ExecutionTime = 0.44 s  ClockTime = 1 s

Time = 0.056

Courant Number mean: 0.0200017 max: 0.02001
smoothSolver:  Solving for Ux, Initial residual = 0.0346284, Final residual = 9.04303e-06, No Iterations 18
smoothSolver:  Solving for Uy, Initial residual = 0.0221622, Final residual = 9.15608e-06, No Iterations 17
GAMG:  Solving for p, Initial residual = 0.0431927, Final residual = 0.00291184, No Iterations 3
time step continuity errors : sum local = 2.94669e-11, global = 1.04658e-11, cumulative = -3.20832e-06
GAMG:  Solving for p, Initial residual = 0.0134956, Final residual = 0.000772696, No Iterations 4
time step continuity errors : sum local = 7.47238e-12, global = 2.68776e-12, cumulative = -3.20832e-06
GAMG:  Solving for p, Initial residual = 0.00456141, Final residual = 0.000203085, No Iterations 5
time step continuity errors : sum local = 1.92536e-12, global = -6.18755e-13, cumulative = -3.20832e-06
GAMG:  Solving for p, Initial residual = 0.00219803, Final residual = 0.000128075, No Iterations 4
time step continuity errors : sum local = 1.22622e-12, global = -1.86827e-13, cumulative = -3.20832e-06
GAMG:  Solving for p, Initial residual = 0.00146613, Final residual = 7.35872e-07, No Iterations 9
time step continuity errors : sum local = 7.1038e-15, global = -5.42335e-16, cumulative = -3.20832e-06
ExecutionTime = 0.44 s  ClockTime = 1 s

Time = 0.057

Courant Number mean: 0.0200017 max: 0.0200093
smoothSolver:  Solving for Ux, Initial residual = 0.0345953, Final residual = 9.04171e-06, No Iterations 18
smoothSolver:  Solving for Uy, Initial residual = 0.0221922, Final residual = 9.16779e-06, No Iterations 17
GAMG:  Solving for p, Initial residual = 0.0432454, Final residual = 0.00288779, No Iterations 3
time step continuity errors : sum local = 2.68635e-11, global = 9.67246e-12, cumulative = -3.20831e-06
GAMG:  Solving for p, Initial residual = 0.0135105, Final residual = 0.000808304, No Iterations 4
time step continuity errors : sum local = 7.18452e-12, global = 2.32262e-12, cumulative = -3.20831e-06
GAMG:  Solving for p, Initial residual = 0.00449855, Final residual = 0.000193887, No Iterations 5
time step continuity errors : sum local = 1.68964e-12, global = -5.31156e-13, cumulative = -3.20831e-06
GAMG:  Solving for p, Initial residual = 0.002226, Final residual = 0.000120517, No Iterations 4
time step continuity errors : sum local = 1.06048e-12, global = -1.34949e-13, cumulative = -3.20831e-06
GAMG:  Solving for p, Initial residual = 0.00145557, Final residual = 6.08965e-07, No Iterations 10
time step continuity errors : sum local = 5.40309e-15, global = 7.50796e-16, cumulative = -3.20831e-06
ExecutionTime = 0.45 s  ClockTime = 1 s

Time = 0.058

Courant Number mean: 0.0200016 max: 0.0200087
smoothSolver:  Solving for Ux, Initial residual = 0.0345702, Final residual = 9.03597e-06, No Iterations 18
smoothSolver:  Solving for Uy, Initial residual = 0.0222221, Final residual = 9.17831e-06, No Iterations 17
GAMG:  Solving for p, Initial residual = 0.0432754, Final residual = 0.0028799, No Iterations 3
time step continuity errors : sum local = 2.46241e-11, global = 8.90133e-12, cumulative = -3.2083e-06
GAMG:  Solving for p, Initial residual = 0.0135189, Final residual = 0.000782957, No Iterations 4
time step continuity errors : sum local = 6.39877e-12, global = 2.30768e-12, cumulative = -3.2083e-06
GAMG:  Solving for p, Initial residual = 0.00455521, Final residual = 0.000204788, No Iterations 5
time step continuity errors : sum local = 1.64024e-12, global = -5.27126e-13, cumulative = -3.2083e-06
GAMG:  Solving for p, Initial residual = 0.00220623, Final residual = 0.000122617, No Iterations 4
time step continuity errors : sum local = 9.91811e-13, global = -1.7208e-13, cumulative = -3.2083e-06
GAMG:  Solving for p, Initial residual = 0.00146061, Final residual = 6.79397e-07, No Iterations 9
time step continuity errors : sum local = 5.54154e-15, global = -4.17711e-16, cumulative = -3.2083e-06
ExecutionTime = 0.46 s  ClockTime = 1 s

Time = 0.059

Courant Number mean: 0.0200016 max: 0.0200081
smoothSolver:  Solving for Ux, Initial residual = 0.0345463, Final residual = 9.03178e-06, No Iterations 18
smoothSolver:  Solving for Uy, Initial residual = 0.0222533, Final residual = 9.18923e-06, No Iterations 17
GAMG:  Solving for p, Initial residual = 0.0433169, Final residual = 0.00287169, No Iterations 3
time step continuity errors : sum local = 2.25698e-11, global = 8.18967e-12, cumulative = -3.20829e-06
GAMG:  Solving for p, Initial residual = 0.0135407, Final residual = 0.000812937, No Iterations 4
time step continuity errors : sum local = 6.10959e-12, global = 1.98216e-12, cumulative = -3.20829e-06
GAMG:  Solving for p, Initial residual = 0.00449972, Final residual = 0.000237914, No Iterations 5
time step continuity errors : sum local = 1.75251e-12, global = -4.8071e-13, cumulative = -3.20829e-06
GAMG:  Solving for p, Initial residual = 0.00227705, Final residual = 0.000136137, No Iterations 4
time step continuity errors : sum local = 1.01228e-12, global = -2.7132e-13, cumulative = -3.20829e-06
GAMG:  Solving for p, Initial residual = 0.00147911, Final residual = 6.26581e-07, No Iterations 9
time step continuity errors : sum local = 4.69763e-15, global = -4.12098e-16, cumulative = -3.20829e-06
ExecutionTime = 0.46 s  ClockTime = 1 s

Time = 0.06

Courant Number mean: 0.0200015 max: 0.0200075
smoothSolver:  Solving for Ux, Initial residual = 0.0345437, Final residual = 9.03411e-06, No Iterations 18
smoothSolver:  Solving for Uy, Initial residual = 0.022282, Final residual = 9.1995e-06, No Iterations 17
GAMG:  Solving for p, Initial residual = 0.0433611, Final residual = 0.00246678, No Iterations 3
[...]
time step continuity errors : sum local = 0.0182681, global = 0.00136012, cumulative = 0.00387986
GAMG:  Solving for p, Initial residual = 0.103685, Final residual = 0.0100578, No Iterations 4
time step continuity errors : sum local = 0.0123191, global = 0.000395772, cumulative = 0.00427564
GAMG:  Solving for p, Initial residual = 0.134681, Final residual = 3.53938e-07, No Iterations 19
time step continuity errors : sum local = 2.40086e-07, global = 3.2109e-08, cumulative = 0.00427567
ExecutionTime = 915.26 s  ClockTime = 922 s

Time = 0.571

Courant Number mean: 1.04569 max: 1.9583
smoothSolver:  Solving for Ux, Initial residual = 0.800631, Final residual = 9.26531e-06, No Iterations 106
smoothSolver:  Solving for Uy, Initial residual = 0.937104, Final residual = 9.58292e-06, No Iterations 86
GAMG:  Solving for p, Initial residual = 0.953167, Final residual = 0.0722287, No Iterations 4
time step continuity errors : sum local = 0.0914174, global = 0.00616052, cumulative = 0.0104362
GAMG:  Solving for p, Initial residual = 0.0957496, Final residual = 0.00596601, No Iterations 4
time step continuity errors : sum local = 0.021579, global = -0.00141361, cumulative = 0.00902257
GAMG:  Solving for p, Initial residual = 0.0926443, Final residual = 0.00271998, No Iterations 6
time step continuity errors : sum local = 0.0068529, global = -0.000286322, cumulative = 0.00873625
GAMG:  Solving for p, Initial residual = 0.119101, Final residual = 0.00736373, No Iterations 4
time step continuity errors : sum local = 0.00903227, global = -0.00143304, cumulative = 0.00730321
GAMG:  Solving for p, Initial residual = 0.139401, Final residual = 3.1993e-07, No Iterations 18
time step continuity errors : sum local = 2.47154e-07, global = -3.09885e-08, cumulative = 0.00730318
ExecutionTime = 915.27 s  ClockTime = 922 s

Time = 0.572

Courant Number mean: 0.590871 max: 3.3313
smoothSolver:  Solving for Ux, Initial residual = 0.840894, Final residual = 9.71714e-06, No Iterations 101
smoothSolver:  Solving for Uy, Initial residual = 0.924481, Final residual = 9.72072e-06, No Iterations 81
GAMG:  Solving for p, Initial residual = 0.988281, Final residual = 0.0776355, No Iterations 3
time step continuity errors : sum local = 0.115153, global = 0.00516458, cumulative = 0.0124678
GAMG:  Solving for p, Initial residual = 0.158156, Final residual = 0.0124208, No Iterations 4
time step continuity errors : sum local = 0.0331472, global = -0.00241435, cumulative = 0.0100534
GAMG:  Solving for p, Initial residual = 0.176853, Final residual = 0.0121848, No Iterations 4
time step continuity errors : sum local = 0.0207959, global = -0.0012579, cumulative = 0.00879552
GAMG:  Solving for p, Initial residual = 0.139086, Final residual = 0.0114548, No Iterations 4
time step continuity errors : sum local = 0.0167006, global = -0.00022582, cumulative = 0.0085697
GAMG:  Solving for p, Initial residual = 0.144361, Final residual = 6.20063e-07, No Iterations 23
time step continuity errors : sum local = 6.01621e-07, global = -2.29504e-08, cumulative = 0.00856967
ExecutionTime = 915.28 s  ClockTime = 922 s

Time = 0.573

Courant Number mean: 1.37834 max: 2.70718
smoothSolver:  Solving for Ux, Initial residual = 0.838026, Final residual = 9.7245e-06, No Iterations 88
smoothSolver:  Solving for Uy, Initial residual = 0.929538, Final residual = 9.41186e-06, No Iterations 81
GAMG:  Solving for p, Initial residual = 0.972028, Final residual = 0.0759412, No Iterations 3
time step continuity errors : sum local = 0.134745, global = 0.00689438, cumulative = 0.0154641
GAMG:  Solving for p, Initial residual = 0.136467, Final residual = 0.0103941, No Iterations 3
time step continuity errors : sum local = 0.0359826, global = 0.00205292, cumulative = 0.017517
GAMG:  Solving for p, Initial residual = 0.117937, Final residual = 0.00597598, No Iterations 4
time step continuity errors : sum local = 0.0160203, global = -0.00286667, cumulative = 0.0146503
GAMG:  Solving for p, Initial residual = 0.159, Final residual = 0.01089, No Iterations 4
time step continuity errors : sum local = 0.0155055, global = -0.00222652, cumulative = 0.0124238
GAMG:  Solving for p, Initial residual = 0.157725, Final residual = 6.53496e-07, No Iterations 19
time step continuity errors : sum local = 6.83582e-07, global = -6.4947e-08, cumulative = 0.0124237
ExecutionTime = 915.28 s  ClockTime = 922 s

Time = 0.574

Courant Number mean: 0.936154 max: 3.95162
smoothSolver:  Solving for Ux, Initial residual = 0.851532, Final residual = 9.11548e-06, No Iterations 114
smoothSolver:  Solving for Uy, Initial residual = 0.949791, Final residual = 9.40172e-06, No Iterations 87
GAMG:  Solving for p, Initial residual = 0.930635, Final residual = 0.0765059, No Iterations 4
time step continuity errors : sum local = 0.185086, global = 0.00215538, cumulative = 0.0145791
GAMG:  Solving for p, Initial residual = 0.0801792, Final residual = 0.00644086, No Iterations 5
time step continuity errors : sum local = 0.0445551, global = 0.00171076, cumulative = 0.0162899
GAMG:  Solving for p, Initial residual = 0.119332, Final residual = 0.0111837, No Iterations 4
time step continuity errors : sum local = 0.0393454, global = -0.000922631, cumulative = 0.0153672
GAMG:  Solving for p, Initial residual = 0.147835, Final residual = 0.0139485, No Iterations 3
time step continuity errors : sum local = 0.0294554, global = -0.00324783, cumulative = 0.0121194
GAMG:  Solving for p, Initial residual = 0.140983, Final residual = 3.83009e-07, No Iterations 18
time step continuity errors : sum local = 5.40889e-07, global = -1.99032e-08, cumulative = 0.0121194
ExecutionTime = 915.29 s  ClockTime = 923 s

Time = 0.575

Courant Number mean: 2.20247 max: 4.13791
smoothSolver:  Solving for Ux, Initial residual = 0.791716, Final residual = 9.4126e-06, No Iterations 102
smoothSolver:  Solving for Uy, Initial residual = 0.943329, Final residual = 9.80109e-06, No Iterations 78
GAMG:  Solving for p, Initial residual = 0.933003, Final residual = 0.0784716, No Iterations 4
time step continuity errors : sum local = 0.202002, global = 0.000926462, cumulative = 0.0130458
GAMG:  Solving for p, Initial residual = 0.0806716, Final residual = 0.00279202, No Iterations 6
time step continuity errors : sum local = 0.0211389, global = 0.000750938, cumulative = 0.0137968
GAMG:  Solving for p, Initial residual = 0.09262, Final residual = 0.00919233, No Iterations 4
time step continuity errors : sum local = 0.0420666, global = 0.00215361, cumulative = 0.0159504
GAMG:  Solving for p, Initial residual = 0.113407, Final residual = 0.0089466, No Iterations 4
time step continuity errors : sum local = 0.024959, global = 0.00103254, cumulative = 0.0169829
GAMG:  Solving for p, Initial residual = 0.130496, Final residual = 2.27619e-07, No Iterations 20
time step continuity errors : sum local = 4.26227e-07, global = 1.03501e-07, cumulative = 0.016983
ExecutionTime = 915.3 s  ClockTime = 923 s

Time = 0.576

Courant Number mean: 3.12853 max: 10.0558
smoothSolver:  Solving for Ux, Initial residual = 0.771199, Final residual = 9.06344e-06, No Iterations 94
smoothSolver:  Solving for Uy, Initial residual = 0.846992, Final residual = 9.49496e-06, No Iterations 77
GAMG:  Solving for p, Initial residual = 0.865869, Final residual = 0.0392439, No Iterations 6
time step continuity errors : sum local = 0.112304, global = 0.00735242, cumulative = 0.0243355
GAMG:  Solving for p, Initial residual = 0.0516167, Final residual = 0.00169868, No Iterations 6
time step continuity errors : sum local = 0.0219599, global = -0.000724774, cumulative = 0.0236107
GAMG:  Solving for p, Initial residual = 0.0859453, Final residual = 0.00387272, No Iterations 6
time step continuity errors : sum local = 0.01916, global = -0.000979497, cumulative = 0.0226312
GAMG:  Solving for p, Initial residual = 0.13115, Final residual = 0.0109568, No Iterations 4
time step continuity errors : sum local = 0.025687, global = -0.00193467, cumulative = 0.0206965
GAMG:  Solving for p, Initial residual = 0.17073, Final residual = 3.61437e-07, No Iterations 20
time step continuity errors : sum local = 5.05576e-07, global = -8.06289e-08, cumulative = 0.0206964
ExecutionTime = 915.31 s  ClockTime = 923 s

Time = 0.577

Courant Number mean: 2.03219 max: 6.12273
smoothSolver:  Solving for Ux, Initial residual = 0.768129, Final residual = 9.87501e-06, No Iterations 106
smoothSolver:  Solving for Uy, Initial residual = 0.875805, Final residual = 9.19082e-06, No Iterations 83
GAMG:  Solving for p, Initial residual = 0.882775, Final residual = 0.0304804, No Iterations 6
time step continuity errors : sum local = 0.0991823, global = 0.0103124, cumulative = 0.0310088
GAMG:  Solving for p, Initial residual = 0.0572295, Final residual = 0.00259511, No Iterations 6
time step continuity errors : sum local = 0.0355243, global = -0.00133348, cumulative = 0.0296753
GAMG:  Solving for p, Initial residual = 0.169254, Final residual = 0.00666612, No Iterations 5
time step continuity errors : sum local = 0.0199483, global = -0.00250812, cumulative = 0.0271672
GAMG:  Solving for p, Initial residual = 0.134709, Final residual = 0.00740186, No Iterations 4
time step continuity errors : sum local = 0.0196143, global = 0.00260675, cumulative = 0.029774
GAMG:  Solving for p, Initial residual = 0.157548, Final residual = 6.65744e-07, No Iterations 17
time step continuity errors : sum local = 1.19184e-06, global = 1.09888e-07, cumulative = 0.0297741
ExecutionTime = 915.32 s  ClockTime = 923 s

Time = 0.578

Courant Number mean: 3.86996 max: 8.06217
smoothSolver:  Solving for Ux, Initial residual = 0.810513, Final residual = 8.67176e-06, No Iterations 81
smoothSolver:  Solving for Uy, Initial residual = 0.798948, Final residual = 9.70733e-06, No Iterations 83
GAMG:  Solving for p, Initial residual = 0.902294, Final residual = 0.0617139, No Iterations 4
time step continuity errors : sum local = 0.169364, global = -0.00956022, cumulative = 0.0202139
GAMG:  Solving for p, Initial residual = 0.0892384, Final residual = 0.00882938, No Iterations 5
time step continuity errors : sum local = 0.0527742, global = 0.00252124, cumulative = 0.0227351
GAMG:  Solving for p, Initial residual = 0.118928, Final residual = 0.0103559, No Iterations 4
time step continuity errors : sum local = 0.034575, global = 0.001665, cumulative = 0.0244001
GAMG:  Solving for p, Initial residual = 0.143099, Final residual = 0.00947553, No Iterations 3
time step continuity errors : sum local = 0.0209178, global = 0.00179909, cumulative = 0.0261992
GAMG:  Solving for p, Initial residual = 0.128143, Final residual = 9.06294e-07, No Iterations 21
time step continuity errors : sum local = 1.56385e-06, global = -4.30054e-08, cumulative = 0.0261992
ExecutionTime = 915.32 s  ClockTime = 923 s

Time = 0.579

Courant Number mean: 3.45913 max: 11.8293
smoothSolver:  Solving for Ux, Initial residual = 0.791738, Final residual = 8.99634e-06, No Iterations 97
smoothSolver:  Solving for Uy, Initial residual = 0.901249, Final residual = 9.94014e-06, No Iterations 75
GAMG:  Solving for p, Initial residual = 0.845645, Final residual = 0.0308287, No Iterations 6
time step continuity errors : sum local = 0.0872521, global = 0.00195736, cumulative = 0.0281565
GAMG:  Solving for p, Initial residual = 0.0461536, Final residual = 0.00173241, No Iterations 6
time step continuity errors : sum local = 0.0268263, global = -0.000830517, cumulative = 0.027326
GAMG:  Solving for p, Initial residual = 0.0840224, Final residual = 0.00796197, No Iterations 5
time step continuity errors : sum local = 0.0370245, global = 0.000884942, cumulative = 0.0282109
GAMG:  Solving for p, Initial residual = 0.123616, Final residual = 0.00649199, No Iterations 4
time step continuity errors : sum local = 0.016035, global = -0.00133018, cumulative = 0.0268808
GAMG:  Solving for p, Initial residual = 0.133883, Final residual = 5.56848e-07, No Iterations 16
time step continuity errors : sum local = 9.8539e-07, global = -5.87183e-08, cumulative = 0.0268807
ExecutionTime = 915.33 s  ClockTime = 923 s

Time = 0.58

Courant Number mean: 2.17699 max: 7.25115
smoothSolver:  Solving for Ux, Initial residual = 0.821652, Final residual = 9.36811e-06, No Iterations 91
smoothSolver:  Solving for Uy, Initial residual = 0.926562, Final residual = 9.86388e-06, No Iterations 87
GAMG:  Solving for p, Initial residual = 0.972415, Final residual = 0.0933191, No Iterations 3
time step continuity errors : sum local = 0.278923, global = 0.0104603, cumulative = 0.037341
GAMG:  Solving for p, Initial residual = 0.122218, Final residual = 0.00970132, No Iterations 5
time step continuity errors : sum local = 0.0568459, global = 0.00088247, cumulative = 0.0382235
GAMG:  Solving for p, Initial residual = 0.137165, Final residual = 0.00739313, No Iterations 4
time step continuity errors : sum local = 0.0256349, global = -0.00237015, cumulative = 0.0358533
GAMG:  Solving for p, Initial residual = 0.100399, Final residual = 0.00654049, No Iterations 4
time step continuity errors : sum local = 0.0230261, global = 0.000763165, cumulative = 0.0366165
GAMG:  Solving for p, Initial residual = 0.107318, Final residual = 4.99476e-07, No Iterations 18
time step continuity errors : sum local = 1.27357e-06, global = 1.19601e-07, cumulative = 0.0366166
ExecutionTime = 915.34 s  ClockTime = 923 s

Time = 0.581

Courant Number mean: 3.45751 max: 11.7391
smoothSolver:  Solving for Ux, Initial residual = 0.838037, Final residual = 8.98392e-06, No Iterations 102
smoothSolver:  Solving for Uy, Initial residual = 0.732389, Final residual = 9.69154e-06, No Iterations 89
GAMG:  Solving for p, Initial residual = 0.864392, Final residual = 0.0431884, No Iterations 6
time step continuity errors : sum local = 0.155159, global = 0.0127014, cumulative = 0.0493181
GAMG:  Solving for p, Initial residual = 0.0437435, Final residual = 0.00183545, No Iterations 6
time step continuity errors : sum local = 0.0366299, global = -0.00115364, cumulative = 0.0481644
GAMG:  Solving for p, Initial residual = 0.0750396, Final residual = 0.00361135, No Iterations 6
time step continuity errors : sum local = 0.0265125, global = -0.00229291, cumulative = 0.0458715
GAMG:  Solving for p, Initial residual = 0.112067, Final residual = 0.0104882, No Iterations 4
time step continuity errors : sum local = 0.0353493, global = -0.00152319, cumulative = 0.0443483
GAMG:  Solving for p, Initial residual = 0.153032, Final residual = 8.6312e-07, No Iterations 18
time step continuity errors : sum local = 1.70871e-06, global = -1.66551e-07, cumulative = 0.0443482
ExecutionTime = 915.34 s  ClockTime = 923 s

Time = 0.582

Courant Number mean: 4.03361 max: 11.4534
smoothSolver:  Solving for Ux, Initial residual = 0.818255, Final residual = 9.59486e-06, No Iterations 98
smoothSolver:  Solving for Uy, Initial residual = 0.763569, Final residual = 9.59849e-06, No Iterations 99
GAMG:  Solving for p, Initial residual = 0.901065, Final residual = 0.0691089, No Iterations 4
time step continuity errors : sum local = 0.232827, global = 0.0154623, cumulative = 0.0598104
GAMG:  Solving for p, Initial residual = 0.106084, Final residual = 0.00763405, No Iterations 5
time step continuity errors : sum local = 0.057192, global = 0.0042339, cumulative = 0.0640443
GAMG:  Solving for p, Initial residual = 0.156334, Final residual = 0.0134064, No Iterations 4
time step continuity errors : sum local = 0.0453328, global = -0.00361145, cumulative = 0.0604329
GAMG:  Solving for p, Initial residual = 0.11986, Final residual = 0.00835997, No Iterations 3
time step continuity errors : sum local = 0.0276294, global = 0.00129886, cumulative = 0.0617317
GAMG:  Solving for p, Initial residual = 0.109696, Final residual = 7.13235e-07, No Iterations 18
time step continuity errors : sum local = 1.87425e-06, global = 1.15308e-07, cumulative = 0.0617319
ExecutionTime = 915.35 s  ClockTime = 923 s

Time = 0.583

Courant Number mean: 4.39349 max: 30.5505
smoothSolver:  Solving for Ux, Initial residual = 0.799969, Final residual = 8.7479e-06, No Iterations 90
smoothSolver:  Solving for Uy, Initial residual = 0.693668, Final residual = 9.49928e-06, No Iterations 86
GAMG:  Solving for p, Initial residual = 0.746341, Final residual = 0.0261918, No Iterations 6
time step continuity errors : sum local = 0.098536, global = 0.0024658, cumulative = 0.0641977
GAMG:  Solving for p, Initial residual = 0.0319115, Final residual = 0.00219087, No Iterations 6
time step continuity errors : sum local = 0.0721419, global = -0.00440355, cumulative = 0.0597941
GAMG:  Solving for p, Initial residual = 0.0775812, Final residual = 0.0043476, No Iterations 6
time step continuity errors : sum local = 0.0274679, global = -0.00148285, cumulative = 0.0583113
GAMG:  Solving for p, Initial residual = 0.14132, Final residual = 0.00968976, No Iterations 4
time step continuity errors : sum local = 0.0248929, global = -0.000748508, cumulative = 0.0575627
GAMG:  Solving for p, Initial residual = 0.191252, Final residual = 3.62104e-07, No Iterations 20
time step continuity errors : sum local = 5.86022e-07, global = -6.80235e-08, cumulative = 0.0575627
ExecutionTime = 915.36 s  ClockTime = 923 s

Time = 0.584

Courant Number mean: 3.32336 max: 20.4382
smoothSolver:  Solving for Ux, Initial residual = 0.869663, Final residual = 9.88912e-06, No Iterations 426
smoothSolver:  Solving for Uy, Initial residual = 0.807862, Final residual = 9.9902e-06, No Iterations 572
GAMG:  Solving for p, Initial residual = 0.940827, Final residual = 0.0402081, No Iterations 6
time step continuity errors : sum local = 0.208357, global = -0.0111629, cumulative = 0.0463998
GAMG:  Solving for p, Initial residual = 0.0269965, Final residual = 0.00183688, No Iterations 6
time step continuity errors : sum local = 0.14432, global = 0.00577009, cumulative = 0.0521699
GAMG:  Solving for p, Initial residual = 0.0415916, Final residual = 0.00235724, No Iterations 6
time step continuity errors : sum local = 0.0657913, global = 0.00369493, cumulative = 0.0558648
GAMG:  Solving for p, Initial residual = 0.042788, Final residual = 0.00232813, No Iterations 4
time step continuity errors : sum local = 0.0435565, global = 0.00172641, cumulative = 0.0575912
GAMG:  Solving for p, Initial residual = 0.0410733, Final residual = 6.35894e-07, No Iterations 16
time step continuity errors : sum local = 1.0857e-05, global = 6.75196e-07, cumulative = 0.0575919
ExecutionTime = 915.38 s  ClockTime = 923 s

Time = 0.585

Courant Number mean: 80.6203 max: 354.01
[0] #0  Foam::error::printStack(Foam::Ostream&) at ??:?
[0] #1  Foam::sigFpe::sigHandler(int) at ??:?
[0] #2  ? in "/lib/x86_64-linux-gnu/libc.so.6"
[0] #3  Foam::symGaussSeidelSmoother::smooth(Foam::word const&, Foam::Field<double>&, Foam::lduMatrix const&, Foam::Field<double> const&, Foam::FieldField<Foam::Field, double> const&, Foam::UPtrList<Foam::lduInterfaceField const> const&, unsigned char, int) at ??:?
[0] #4  Foam::symGaussSeidelSmoother::smooth(Foam::Field<double>&, Foam::Field<double> const&, unsigned char, int) const at ??:?
[0] #5  Foam::smoothSolver::solve(Foam::Field<double>&, Foam::Field<double> const&, unsigned char) const at ??:?
[0] #6  ? at ??:?
[0] #7  ? at ??:?
[0] #8  ? at ??:?
[0] #9  __libc_start_main in "/lib/x86_64-linux-gnu/libc.so.6"
[0] #10  ? at ??:?

===================================================================================
=   BAD TERMINATION OF ONE OF YOUR APPLICATION PROCESSES
=   PID 9337 RUNNING AT hermes-N552VW
=   EXIT CODE: 136
=   CLEANING UP REMAINING PROCESSES
=   YOU CAN IGNORE THE BELOW CLEANUP MESSAGES
===================================================================================
YOUR APPLICATION TERMINATED WITH THE EXIT STRING: Floating point exception (signal 8)
This typically refers to a problem with your application.
Please see the FAQ page for debugging suggestions
