/*---------------------------------------------------------------------------*\
| =========                 |                                                 |
| \\      /  F ield         | OpenFOAM: The Open Source CFD Toolbox           |
|  \\    /   O peration     | Version:  5.0                                   |
|   \\  /    A nd           | Web:      www.OpenFOAM.org                      |
|    \\/     M anipulation  |                                                 |
\*---------------------------------------------------------------------------*/
Build  : 5.0-dbb428a3a855
Exec   : AnonNewtonianIcoFoam -parallel
Date   : Oct 24 2017
Time   : 17:13:01
Host   : "hermes-N552VW"
PID    : 11874
I/O    : uncollated
Case   : /home/hermes/Desktop/gitDPD/DPDCFD/poiseuilleflow
nProcs : 2
Slaves : 1("hermes-N552VW.11875")
Pstream initialized with:
    floatTransfer      : 0
    nProcsSimpleSum    : 0
    commsType          : nonBlocking
    polling iterations : 0
sigFpe : Enabling floating point exception trapping (FOAM_SIGFPE).
fileModificationChecking : Monitoring run-time modified files using timeStampMaster (fileModificationSkew 10)
allowSystemOperations : Allowing user-supplied system call operations

// * * * * * * * * * * * * * * * * * * * * * * * * * * * * * * * * * * * * * //
Create time

Create mesh, no clear-out for time = 0


PISO: Operating solver in PISO mode

Reading field p

Reading field U

Hey! I am faking the viscosity 

Reading/calculating face flux field phi

Selecting incompressible transport model CrossPowerLaw

Starting time loop

Time = 0.001

Courant Number mean: 0.02 max: 0.02
smoothSolver:  Solving for Ux, Initial residual = 1, Final residual = 6.28275e-06, No Iterations 21
smoothSolver:  Solving for Uy, Initial residual = 0.999938, Final residual = 6.55202e-06, No Iterations 19
GAMG:  Solving for p, Initial residual = 1, Final residual = 0.0353493, No Iterations 6
time step continuity errors : sum local = 8.82156e-06, global = -2.078e-06, cumulative = -2.078e-06
GAMG:  Solving for p, Initial residual = 0.189924, Final residual = 0.00800063, No Iterations 6
time step continuity errors : sum local = 7.66496e-06, global = 2.11793e-06, cumulative = 3.99282e-08
GAMG:  Solving for p, Initial residual = 0.388047, Final residual = 0.0245817, No Iterations 4
time step continuity errors : sum local = 2.88128e-06, global = 6.98045e-07, cumulative = 7.37974e-07
GAMG:  Solving for p, Initial residual = 0.303777, Final residual = 0.0128231, No Iterations 5
time step continuity errors : sum local = 7.66551e-07, global = -1.86363e-07, cumulative = 5.5161e-07
GAMG:  Solving for p, Initial residual = 0.266898, Final residual = 3.74565e-07, No Iterations 23
time step continuity errors : sum local = 1.29454e-11, global = -1.47026e-12, cumulative = 5.51609e-07
ExecutionTime = 0.02 s  ClockTime = 0 s

Time = 0.002

Courant Number mean: 0.0182518 max: 0.020505
smoothSolver:  Solving for Ux, Initial residual = 0.102889, Final residual = 9.51808e-06, No Iterations 17
smoothSolver:  Solving for Uy, Initial residual = 0.375862, Final residual = 7.14849e-06, No Iterations 22
GAMG:  Solving for p, Initial residual = 0.60497, Final residual = 0.0266821, No Iterations 6
time step continuity errors : sum local = 1.66086e-06, global = 2.66785e-07, cumulative = 8.18394e-07
GAMG:  Solving for p, Initial residual = 0.169564, Final residual = 0.00837693, No Iterations 6
time step continuity errors : sum local = 7.88015e-07, global = -9.76378e-08, cumulative = 7.20757e-07
GAMG:  Solving for p, Initial residual = 0.302544, Final residual = 0.0291533, No Iterations 5
time step continuity errors : sum local = 6.77576e-07, global = 1.37974e-07, cumulative = 8.5873e-07
GAMG:  Solving for p, Initial residual = 0.120097, Final residual = 0.00449322, No Iterations 5
time step continuity errors : sum local = 1.3059e-07, global = 1.90454e-08, cumulative = 8.77776e-07
GAMG:  Solving for p, Initial residual = 0.0842387, Final residual = 3.3514e-07, No Iterations 17
time step continuity errors : sum local = 8.36463e-12, global = 5.60042e-13, cumulative = 8.77776e-07
ExecutionTime = 0.02 s  ClockTime = 0 s

Time = 0.003

Courant Number mean: 0.0172804 max: 0.0204874
smoothSolver:  Solving for Ux, Initial residual = 0.0485626, Final residual = 9.27176e-06, No Iterations 17
smoothSolver:  Solving for Uy, Initial residual = 0.138491, Final residual = 7.24993e-06, No Iterations 20
GAMG:  Solving for p, Initial residual = 0.212075, Final residual = 0.0106079, No Iterations 6
time step continuity errors : sum local = 2.35169e-07, global = 1.28615e-08, cumulative = 8.90638e-07
GAMG:  Solving for p, Initial residual = 0.20769, Final residual = 0.0154026, No Iterations 6
time step continuity errors : sum local = 1.47449e-07, global = -9.94776e-09, cumulative = 8.8069e-07
GAMG:  Solving for p, Initial residual = 0.0464212, Final residual = 0.00248709, No Iterations 6
time step continuity errors : sum local = 3.35795e-08, global = -1.96713e-09, cumulative = 8.78723e-07
GAMG:  Solving for p, Initial residual = 0.0160258, Final residual = 0.000982998, No Iterations 4
time step continuity errors : sum local = 1.66314e-08, global = -2.9259e-10, cumulative = 8.7843e-07
GAMG:  Solving for p, Initial residual = 0.0103995, Final residual = 3.3879e-07, No Iterations 18
time step continuity errors : sum local = 5.80671e-12, global = 6.43744e-14, cumulative = 8.7843e-07
ExecutionTime = 0.04 s  ClockTime = 0 s

Time = 0.004

Courant Number mean: 0.0165627 max: 0.020476
smoothSolver:  Solving for Ux, Initial residual = 0.0339294, Final residual = 8.6185e-06, No Iterations 17
smoothSolver:  Solving for Uy, Initial residual = 0.0658609, Final residual = 8.00391e-06, No Iterations 18
GAMG:  Solving for p, Initial residual = 0.115448, Final residual = 0.00653293, No Iterations 6
time step continuity errors : sum local = 1.11501e-07, global = 1.26136e-08, cumulative = 8.91044e-07
GAMG:  Solving for p, Initial residual = 0.0926628, Final residual = 0.00746234, No Iterations 6
time step continuity errors : sum local = 6.16731e-08, global = -4.94471e-09, cumulative = 8.86099e-07
GAMG:  Solving for p, Initial residual = 0.0189249, Final residual = 0.00125666, No Iterations 6
time step continuity errors : sum local = 1.71903e-08, global = -1.46276e-09, cumulative = 8.84636e-07
GAMG:  Solving for p, Initial residual = 0.00749895, Final residual = 0.000257763, No Iterations 5
time step continuity errors : sum local = 3.8579e-09, global = -5.12703e-11, cumulative = 8.84585e-07
GAMG:  Solving for p, Initial residual = 0.00460829, Final residual = 7.22202e-07, No Iterations 11
time step continuity errors : sum local = 1.08404e-11, global = 2.10998e-13, cumulative = 8.84585e-07
ExecutionTime = 0.05 s  ClockTime = 0 s

Time = 0.005

Courant Number mean: 0.0159675 max: 0.0204161
smoothSolver:  Solving for Ux, Initial residual = 0.0273905, Final residual = 8.13475e-06, No Iterations 17
smoothSolver:  Solving for Uy, Initial residual = 0.0431204, Final residual = 7.86509e-06, No Iterations 17
GAMG:  Solving for p, Initial residual = 0.0732472, Final residual = 0.00435196, No Iterations 6
time step continuity errors : sum local = 6.35047e-08, global = 4.99215e-09, cumulative = 8.89578e-07
GAMG:  Solving for p, Initial residual = 0.0532509, Final residual = 0.00475864, No Iterations 6
time step continuity errors : sum local = 4.17076e-08, global = -3.57965e-09, cumulative = 8.85998e-07
GAMG:  Solving for p, Initial residual = 0.00976673, Final residual = 0.000651334, No Iterations 6
time step continuity errors : sum local = 8.14477e-09, global = -5.37077e-10, cumulative = 8.85461e-07
GAMG:  Solving for p, Initial residual = 0.00309278, Final residual = 0.000126797, No Iterations 6
time step continuity errors : sum local = 1.68623e-09, global = -1.32387e-10, cumulative = 8.85328e-07
GAMG:  Solving for p, Initial residual = 0.0020965, Final residual = 5.56879e-07, No Iterations 13
time step continuity errors : sum local = 7.45558e-12, global = 2.53833e-14, cumulative = 8.85328e-07
ExecutionTime = 0.06 s  ClockTime = 0 s

Time = 0.006

Courant Number mean: 0.0154473 max: 0.0203207
smoothSolver:  Solving for Ux, Initial residual = 0.0237783, Final residual = 7.75056e-06, No Iterations 17
smoothSolver:  Solving for Uy, Initial residual = 0.0342294, Final residual = 7.74655e-06, No Iterations 17
GAMG:  Solving for p, Initial residual = 0.0524326, Final residual = 0.00329028, No Iterations 6
time step continuity errors : sum local = 4.31648e-08, global = 2.83064e-09, cumulative = 8.88159e-07
GAMG:  Solving for p, Initial residual = 0.0365296, Final residual = 0.00310076, No Iterations 6
time step continuity errors : sum local = 2.83731e-08, global = -2.39232e-09, cumulative = 8.85767e-07
GAMG:  Solving for p, Initial residual = 0.00671058, Final residual = 0.000475145, No Iterations 6
time step continuity errors : sum local = 5.57169e-09, global = -2.99519e-10, cumulative = 8.85467e-07
GAMG:  Solving for p, Initial residual = 0.00197246, Final residual = 7.18677e-05, No Iterations 6
time step continuity errors : sum local = 8.80045e-10, global = -5.64666e-11, cumulative = 8.85411e-07
GAMG:  Solving for p, Initial residual = 0.00128638, Final residual = 7.36874e-07, No Iterations 13
time step continuity errors : sum local = 9.06132e-12, global = 3.26668e-13, cumulative = 8.85411e-07
ExecutionTime = 0.07 s  ClockTime = 0 s

Time = 0.007

Courant Number mean: 0.0149792 max: 0.0201933
smoothSolver:  Solving for Ux, Initial residual = 0.0214284, Final residual = 7.45233e-06, No Iterations 17
smoothSolver:  Solving for Uy, Initial residual = 0.0329172, Final residual = 8.21765e-06, No Iterations 17
GAMG:  Solving for p, Initial residual = 0.0405316, Final residual = 0.00223556, No Iterations 6
time step continuity errors : sum local = 2.70483e-08, global = 1.34665e-09, cumulative = 8.86758e-07
GAMG:  Solving for p, Initial residual = 0.0276615, Final residual = 0.00223512, No Iterations 6
time step continuity errors : sum local = 2.06617e-08, global = -1.68074e-09, cumulative = 8.85077e-07
GAMG:  Solving for p, Initial residual = 0.0049429, Final residual = 0.000361146, No Iterations 6
time step continuity errors : sum local = 3.99964e-09, global = -1.38594e-10, cumulative = 8.84938e-07
GAMG:  Solving for p, Initial residual = 0.00130289, Final residual = 5.21161e-05, No Iterations 6
time step continuity errors : sum local = 5.98318e-10, global = -2.20681e-11, cumulative = 8.84916e-07
GAMG:  Solving for p, Initial residual = 0.000853316, Final residual = 9.6484e-07, No Iterations 11
time step continuity errors : sum local = 1.11278e-11, global = 4.31839e-13, cumulative = 8.84917e-07
ExecutionTime = 0.08 s  ClockTime = 0 s

Time = 0.008

Courant Number mean: 0.0145502 max: 0.020039
smoothSolver:  Solving for Ux, Initial residual = 0.0197515, Final residual = 7.20623e-06, No Iterations 17
smoothSolver:  Solving for Uy, Initial residual = 0.0345744, Final residual = 8.77047e-06, No Iterations 17
GAMG:  Solving for p, Initial residual = 0.0320228, Final residual = 0.00181771, No Iterations 6
time step continuity errors : sum local = 2.06745e-08, global = 9.88424e-10, cumulative = 8.85905e-07
GAMG:  Solving for p, Initial residual = 0.0222179, Final residual = 0.00169814, No Iterations 6
time step continuity errors : sum local = 1.56218e-08, global = -1.1678e-09, cumulative = 8.84737e-07
GAMG:  Solving for p, Initial residual = 0.00388137, Final residual = 0.000283672, No Iterations 6
time step continuity errors : sum local = 3.0047e-09, global = -1.01404e-10, cumulative = 8.84636e-07
GAMG:  Solving for p, Initial residual = 0.000996787, Final residual = 4.04233e-05, No Iterations 6
time step continuity errors : sum local = 4.40862e-10, global = -2.29089e-11, cumulative = 8.84613e-07
GAMG:  Solving for p, Initial residual = 0.000635917, Final residual = 4.52574e-07, No Iterations 10
time step continuity errors : sum local = 4.95588e-12, global = -9.41643e-14, cumulative = 8.84613e-07
ExecutionTime = 0.08 s  ClockTime = 0 s

Time = 0.009

Courant Number mean: 0.0141519 max: 0.0198564
smoothSolver:  Solving for Ux, Initial residual = 0.0185018, Final residual = 7.00264e-06, No Iterations 17
smoothSolver:  Solving for Uy, Initial residual = 0.0370726, Final residual = 9.40231e-06, No Iterations 17
GAMG:  Solving for p, Initial residual = 0.0257143, Final residual = 0.00152245, No Iterations 6
time step continuity errors : sum local = 1.64923e-08, global = 7.74828e-10, cumulative = 8.85388e-07
GAMG:  Solving for p, Initial residual = 0.0183461, Final residual = 0.00134948, No Iterations 6
time step continuity errors : sum local = 1.22964e-08, global = -8.32223e-10, cumulative = 8.84556e-07
GAMG:  Solving for p, Initial residual = 0.00317215, Final residual = 0.000229709, No Iterations 6
time step continuity errors : sum local = 2.34595e-09, global = -1.51891e-10, cumulative = 8.84404e-07
GAMG:  Solving for p, Initial residual = 0.00080352, Final residual = 3.39071e-05, No Iterations 6
time step continuity errors : sum local = 3.54797e-10, global = -1.47603e-11, cumulative = 8.84389e-07
GAMG:  Solving for p, Initial residual = 0.000497628, Final residual = 9.28013e-07, No Iterations 9
time step continuity errors : sum local = 9.74576e-12, global = 5.84135e-13, cumulative = 8.8439e-07
ExecutionTime = 0.09 s  ClockTime = 0 s

Time = 0.01

Courant Number mean: 0.0137787 max: 0.0196514
smoothSolver:  Solving for Ux, Initial residual = 0.0175508, Final residual = 6.83714e-06, No Iterations 17
smoothSolver:  Solving for Uy, Initial residual = 0.0401482, Final residual = 6.22713e-06, No Iterations 18
GAMG:  Solving for p, Initial residual = 0.0209611, Final residual = 0.00128625, No Iterations 6
time step continuity errors : sum local = 1.33964e-08, global = 6.63188e-10, cumulative = 8.85053e-07
GAMG:  Solving for p, Initial residual = 0.0155315, Final residual = 0.000744211, No Iterations 6
time step continuity errors : sum local = 6.70039e-09, global = -9.75056e-10, cumulative = 8.84078e-07
GAMG:  Solving for p, Initial residual = 0.00232716, Final residual = 7.7475e-05, No Iterations 8
time step continuity errors : sum local = 7.66316e-10, global = -2.90595e-11, cumulative = 8.84049e-07
GAMG:  Solving for p, Initial residual = 0.000656201, Final residual = 5.37085e-05, No Iterations 4
time step continuity errors : sum local = 5.44095e-10, global = 5.04034e-11, cumulative = 8.84099e-07
GAMG:  Solving for p, Initial residual = 0.000426885, Final residual = 5.56601e-07, No Iterations 10
time step continuity errors : sum local = 5.6449e-12, global = -2.37187e-13, cumulative = 8.84099e-07
ExecutionTime = 0.1 s  ClockTime = 0 s

Time = 0.011

Courant Number mean: 0.0134263 max: 0.019426
smoothSolver:  Solving for Ux, Initial residual = 0.0167952, Final residual = 6.69576e-06, No Iterations 17
smoothSolver:  Solving for Uy, Initial residual = 0.0437416, Final residual = 6.75825e-06, No Iterations 18
GAMG:  Solving for p, Initial residual = 0.0173116, Final residual = 0.00119625, No Iterations 6
time step continuity errors : sum local = 1.20595e-08, global = 7.30635e-10, cumulative = 8.84829e-07
GAMG:  Solving for p, Initial residual = 0.0133158, Final residual = 0.000659143, No Iterations 6
time step continuity errors : sum local = 5.86448e-09, global = -7.12663e-10, cumulative = 8.84117e-07
GAMG:  Solving for p, Initial residual = 0.00206334, Final residual = 6.7008e-05, No Iterations 8
time step continuity errors : sum local = 6.45706e-10, global = -3.0899e-11, cumulative = 8.84086e-07
GAMG:  Solving for p, Initial residual = 0.000559522, Final residual = 5.45018e-05, No Iterations 4
time step continuity errors : sum local = 5.36392e-10, global = 2.05107e-11, cumulative = 8.84106e-07
GAMG:  Solving for p, Initial residual = 0.000365317, Final residual = 5.28789e-07, No Iterations 10
time step continuity errors : sum local = 5.21118e-12, global = -2.66652e-13, cumulative = 8.84106e-07
ExecutionTime = 0.1 s  ClockTime = 0 s

Time = 0.012

Courant Number mean: 0.0130918 max: 0.0191738
smoothSolver:  Solving for Ux, Initial residual = 0.0161916, Final residual = 6.5775e-06, No Iterations 17
smoothSolver:  Solving for Uy, Initial residual = 0.048007, Final residual = 7.40163e-06, No Iterations 18
GAMG:  Solving for p, Initial residual = 0.0144187, Final residual = 0.00109707, No Iterations 6
time step continuity errors : sum local = 1.07618e-08, global = 6.98688e-10, cumulative = 8.84805e-07
GAMG:  Solving for p, Initial residual = 0.0114767, Final residual = 0.000578813, No Iterations 6
time step continuity errors : sum local = 5.07354e-09, global = -5.60776e-10, cumulative = 8.84244e-07
GAMG:  Solving for p, Initial residual = 0.0018252, Final residual = 6.37473e-05, No Iterations 8
time step continuity errors : sum local = 6.00237e-10, global = -1.89586e-11, cumulative = 8.84225e-07
GAMG:  Solving for p, Initial residual = 0.000489517, Final residual = 1.29887e-05, No Iterations 6
time step continuity errors : sum local = 1.24733e-10, global = -1.00905e-11, cumulative = 8.84215e-07
GAMG:  Solving for p, Initial residual = 0.000284033, Final residual = 4.62649e-07, No Iterations 10
time step continuity errors : sum local = 4.44852e-12, global = -2.77886e-13, cumulative = 8.84215e-07
ExecutionTime = 0.11 s  ClockTime = 0 s

Time = 0.013

Courant Number mean: 0.0127727 max: 0.0188997
smoothSolver:  Solving for Ux, Initial residual = 0.015706, Final residual = 6.47938e-06, No Iterations 17
smoothSolver:  Solving for Uy, Initial residual = 0.0533307, Final residual = 8.21317e-06, No Iterations 18
GAMG:  Solving for p, Initial residual = 0.0120943, Final residual = 0.00103179, No Iterations 6
time step continuity errors : sum local = 9.88474e-09, global = 6.84886e-10, cumulative = 8.849e-07
GAMG:  Solving for p, Initial residual = 0.009973, Final residual = 0.00054799, No Iterations 6
time step continuity errors : sum local = 4.73046e-09, global = -5.04575e-10, cumulative = 8.84395e-07
GAMG:  Solving for p, Initial residual = 0.00165701, Final residual = 5.78574e-05, No Iterations 8
time step continuity errors : sum local = 5.33709e-10, global = -1.81679e-11, cumulative = 8.84377e-07
GAMG:  Solving for p, Initial residual = 0.000436533, Final residual = 1.4696e-05, No Iterations 6
time step continuity errors : sum local = 1.38047e-10, global = -6.88383e-13, cumulative = 8.84376e-07
GAMG:  Solving for p, Initial residual = 0.000249784, Final residual = 4.25996e-07, No Iterations 10
time step continuity errors : sum local = 4.00688e-12, global = -2.69264e-13, cumulative = 8.84376e-07
ExecutionTime = 0.12 s  ClockTime = 0 s

Time = 0.014

Courant Number mean: 0.0124671 max: 0.0186081
smoothSolver:  Solving for Ux, Initial residual = 0.015311, Final residual = 6.39756e-06, No Iterations 17
smoothSolver:  Solving for Uy, Initial residual = 0.060245, Final residual = 9.27737e-06, No Iterations 18
GAMG:  Solving for p, Initial residual = 0.0102805, Final residual = 0.00102109, No Iterations 6
time step continuity errors : sum local = 9.57844e-09, global = 5.70483e-10, cumulative = 8.84946e-07
GAMG:  Solving for p, Initial residual = 0.00868759, Final residual = 0.00052169, No Iterations 6
time step continuity errors : sum local = 4.43077e-09, global = -5.69526e-10, cumulative = 8.84377e-07
GAMG:  Solving for p, Initial residual = 0.00151962, Final residual = 5.43669e-05, No Iterations 8
time step continuity errors : sum local = 4.92091e-10, global = -1.73535e-11, cumulative = 8.84359e-07
GAMG:  Solving for p, Initial residual = 0.000399248, Final residual = 1.42663e-05, No Iterations 6
time step continuity errors : sum local = 1.31336e-10, global = 2.00522e-14, cumulative = 8.8436e-07
GAMG:  Solving for p, Initial residual = 0.000220997, Final residual = 4.0511e-07, No Iterations 10
time step continuity errors : sum local = 3.73425e-12, global = -2.56904e-13, cumulative = 8.84359e-07
ExecutionTime = 0.12 s  ClockTime = 0 s

Time = 0.015

Courant Number mean: 0.0121737 max: 0.018303
smoothSolver:  Solving for Ux, Initial residual = 0.0149872, Final residual = 9.97114e-06, No Iterations 16
smoothSolver:  Solving for Uy, Initial residual = 0.0698002, Final residual = 6.61589e-06, No Iterations 19
GAMG:  Solving for p, Initial residual = 0.00880648, Final residual = 0.000780214, No Iterations 6
time step continuity errors : sum local = 7.17838e-09, global = 5.98885e-10, cumulative = 8.84958e-07
GAMG:  Solving for p, Initial residual = 0.0075681, Final residual = 0.00029765, No Iterations 6
time step continuity errors : sum local = 2.47068e-09, global = -7.85909e-11, cumulative = 8.8488e-07
GAMG:  Solving for p, Initial residual = 0.00124573, Final residual = 3.74548e-05, No Iterations 8
time step continuity errors : sum local = 3.33076e-10, global = -1.10155e-11, cumulative = 8.84869e-07
GAMG:  Solving for p, Initial residual = 0.000365341, Final residual = 2.81693e-05, No Iterations 6
time step continuity errors : sum local = 2.54092e-10, global = -1.3248e-11, cumulative = 8.84855e-07
GAMG:  Solving for p, Initial residual = 0.000212909, Final residual = 4.68894e-07, No Iterations 10
time step continuity errors : sum local = 4.24098e-12, global = -3.27211e-13, cumulative = 8.84855e-07
ExecutionTime = 0.13 s  ClockTime = 0 s

Time = 0.016

Courant Number mean: 0.0118911 max: 0.0179879
smoothSolver:  Solving for Ux, Initial residual = 0.0147205, Final residual = 9.878e-06, No Iterations 16
smoothSolver:  Solving for Uy, Initial residual = 0.0838119, Final residual = 7.95556e-06, No Iterations 19
GAMG:  Solving for p, Initial residual = 0.00761246, Final residual = 0.000255066, No Iterations 8
time step continuity errors : sum local = 2.304e-09, global = 7.07116e-11, cumulative = 8.84926e-07
GAMG:  Solving for p, Initial residual = 0.0063551, Final residual = 0.000291204, No Iterations 6
time step continuity errors : sum local = 2.36931e-09, global = -7.20431e-11, cumulative = 8.84854e-07
GAMG:  Solving for p, Initial residual = 0.00107079, Final residual = 9.6065e-05, No Iterations 7
time step continuity errors : sum local = 8.41507e-10, global = 9.08848e-11, cumulative = 8.84945e-07
GAMG:  Solving for p, Initial residual = 0.000383271, Final residual = 3.5261e-05, No Iterations 6
time step continuity errors : sum local = 3.12541e-10, global = 2.99254e-12, cumulative = 8.84947e-07
GAMG:  Solving for p, Initial residual = 0.000199309, Final residual = 4.92095e-07, No Iterations 10
time step continuity errors : sum local = 4.37191e-12, global = -3.14695e-13, cumulative = 8.84947e-07
ExecutionTime = 0.14 s  ClockTime = 0 s

Time = 0.017

Courant Number mean: 0.0116183 max: 0.0176659
smoothSolver:  Solving for Ux, Initial residual = 0.0144996, Final residual = 9.79992e-06, No Iterations 16
smoothSolver:  Solving for Uy, Initial residual = 0.10616, Final residual = 6.21504e-06, No Iterations 20
GAMG:  Solving for p, Initial residual = 0.00666634, Final residual = 0.00025962, No Iterations 8
time step continuity errors : sum local = 2.30346e-09, global = 6.65596e-11, cumulative = 8.85014e-07
GAMG:  Solving for p, Initial residual = 0.00568086, Final residual = 0.000282633, No Iterations 6
time step continuity errors : sum local = 2.25743e-09, global = -7.52522e-11, cumulative = 8.84938e-07
GAMG:  Solving for p, Initial residual = 0.00101992, Final residual = 9.14076e-05, No Iterations 7
time step continuity errors : sum local = 7.86471e-10, global = 1.02676e-10, cumulative = 8.85041e-07
GAMG:  Solving for p, Initial residual = 0.000367585, Final residual = 2.35403e-05, No Iterations 6
time step continuity errors : sum local = 2.04927e-10, global = -8.55852e-12, cumulative = 8.85033e-07
GAMG:  Solving for p, Initial residual = 0.000178994, Final residual = 4.58129e-07, No Iterations 10
time step continuity errors : sum local = 3.99781e-12, global = -2.59636e-13, cumulative = 8.85032e-07
ExecutionTime = 0.15 s  ClockTime = 0 s

Time = 0.018

Courant Number mean: 0.0113547 max: 0.0173393
smoothSolver:  Solving for Ux, Initial residual = 0.0143133, Final residual = 9.73258e-06, No Iterations 16
smoothSolver:  Solving for Uy, Initial residual = 0.145632, Final residual = 8.54585e-06, No Iterations 20
GAMG:  Solving for p, Initial residual = 0.00593246, Final residual = 0.000268487, No Iterations 8
time step continuity errors : sum local = 2.33954e-09, global = 6.71682e-11, cumulative = 8.851e-07
GAMG:  Solving for p, Initial residual = 0.00513451, Final residual = 0.000290833, No Iterations 6
time step continuity errors : sum local = 2.27776e-09, global = -7.76568e-11, cumulative = 8.85022e-07
GAMG:  Solving for p, Initial residual = 0.000992562, Final residual = 9.36301e-05, No Iterations 7
time step continuity errors : sum local = 7.91035e-10, global = 1.05765e-10, cumulative = 8.85128e-07
GAMG:  Solving for p, Initial residual = 0.000361729, Final residual = 2.29032e-05, No Iterations 6
time step continuity errors : sum local = 1.95789e-10, global = -7.83578e-12, cumulative = 8.8512e-07
GAMG:  Solving for p, Initial residual = 0.000168333, Final residual = 4.54188e-07, No Iterations 10
time step continuity errors : sum local = 3.8918e-12, global = -2.54797e-13, cumulative = 8.8512e-07
ExecutionTime = 0.16 s  ClockTime = 0 s

Time = 0.019

Courant Number mean: 0.0110996 max: 0.0170103
smoothSolver:  Solving for Ux, Initial residual = 0.0141581, Final residual = 9.67603e-06, No Iterations 16
smoothSolver:  Solving for Uy, Initial residual = 0.220684, Final residual = 7.99252e-06, No Iterations 21
GAMG:  Solving for p, Initial residual = 0.00546983, Final residual = 0.000281234, No Iterations 8
time step continuity errors : sum local = 2.40626e-09, global = 6.85836e-11, cumulative = 8.85188e-07
GAMG:  Solving for p, Initial residual = 0.0047629, Final residual = 0.000334541, No Iterations 6
time step continuity errors : sum local = 2.56631e-09, global = -1.75952e-10, cumulative = 8.85012e-07
GAMG:  Solving for p, Initial residual = 0.0010384, Final residual = 3.43519e-05, No Iterations 8
time step continuity errors : sum local = 2.8475e-10, global = -9.01898e-12, cumulative = 8.85003e-07
GAMG:  Solving for p, Initial residual = 0.000339643, Final residual = 1.59408e-05, No Iterations 6
time step continuity errors : sum local = 1.33793e-10, global = -2.45338e-11, cumulative = 8.84979e-07
GAMG:  Solving for p, Initial residual = 0.000148973, Final residual = 4.39085e-07, No Iterations 10
time step continuity errors : sum local = 3.69315e-12, global = -2.30711e-13, cumulative = 8.84978e-07
ExecutionTime = 0.16 s  ClockTime = 0 s

Time = 0.02

Courant Number mean: 0.0108526 max: 0.0166806
smoothSolver:  Solving for Ux, Initial residual = 0.0140286, Final residual = 9.62862e-06, No Iterations 16
smoothSolver:  Solving for Uy, Initial residual = 0.161748, Final residual = 9.54209e-06, No Iterations 20
GAMG:  Solving for p, Initial residual = 0.0051404, Final residual = 0.000294073, No Iterations 8
time step continuity errors : sum local = 2.46996e-09, global = 6.96634e-11, cumulative = 8.85048e-07
GAMG:  Solving for p, Initial residual = 0.00449941, Final residual = 0.000328018, No Iterations 6
time step continuity errors : sum local = 2.46171e-09, global = -1.06847e-10, cumulative = 8.84941e-07
GAMG:  Solving for p, Initial residual = 0.00101404, Final residual = 3.07591e-05, No Iterations 8
time step continuity errors : sum local = 2.5018e-10, global = -7.56679e-12, cumulative = 8.84934e-07
GAMG:  Solving for p, Initial residual = 0.000335196, Final residual = 2.50618e-05, No Iterations 6
time step continuity errors : sum local = 2.06389e-10, global = -8.60415e-12, cumulative = 8.84925e-07
GAMG:  Solving for p, Initial residual = 0.000151009, Final residual = 4.3842e-07, No Iterations 10
time step continuity errors : sum local = 3.61854e-12, global = -2.82198e-13, cumulative = 8.84925e-07
ExecutionTime = 0.17 s  ClockTime = 0 s

Time = 0.021

Courant Number mean: 0.0106131 max: 0.0163516
smoothSolver:  Solving for Ux, Initial residual = 0.0139208, Final residual = 9.58909e-06, No Iterations 16
smoothSolver:  Solving for Uy, Initial residual = 0.0982906, Final residual = 9.44578e-06, No Iterations 19
GAMG:  Solving for p, Initial residual = 0.00489067, Final residual = 0.000306523, No Iterations 8
time step continuity errors : sum local = 2.52615e-09, global = 7.22397e-11, cumulative = 8.84997e-07
GAMG:  Solving for p, Initial residual = 0.00431444, Final residual = 0.000336521, No Iterations 6
time step continuity errors : sum local = 2.47142e-09, global = -1.10544e-10, cumulative = 8.84886e-07
GAMG:  Solving for p, Initial residual = 0.0010173, Final residual = 3.25193e-05, No Iterations 8
time step continuity errors : sum local = 2.59391e-10, global = -7.87628e-12, cumulative = 8.84879e-07
GAMG:  Solving for p, Initial residual = 0.000334535, Final residual = 1.56681e-05, No Iterations 6
time step continuity errors : sum local = 1.26569e-10, global = -2.76849e-11, cumulative = 8.84851e-07
GAMG:  Solving for p, Initial residual = 0.000138643, Final residual = 4.4131e-07, No Iterations 10
time step continuity errors : sum local = 3.57277e-12, global = -2.30997e-13, cumulative = 8.84851e-07
ExecutionTime = 0.18 s  ClockTime = 0 s

Time = 0.022

Courant Number mean: 0.0103802 max: 0.0160308
smoothSolver:  Solving for Ux, Initial residual = 0.0138308, Final residual = 9.55605e-06, No Iterations 16
smoothSolver:  Solving for Uy, Initial residual = 0.0646669, Final residual = 6.23362e-06, No Iterations 19
GAMG:  Solving for p, Initial residual = 0.00466519, Final residual = 0.000437204, No Iterations 6
time step continuity errors : sum local = 3.53439e-09, global = -6.88221e-12, cumulative = 8.84844e-07
GAMG:  Solving for p, Initial residual = 0.00432664, Final residual = 0.000322305, No Iterations 6
time step continuity errors : sum local = 2.31521e-09, global = -9.35472e-11, cumulative = 8.8475e-07
GAMG:  Solving for p, Initial residual = 0.00104416, Final residual = 3.74974e-05, No Iterations 8
time step continuity errors : sum local = 2.93149e-10, global = -1.23272e-11, cumulative = 8.84738e-07
GAMG:  Solving for p, Initial residual = 0.000314865, Final residual = 2.4414e-05, No Iterations 6
time step continuity errors : sum local = 1.93342e-10, global = -8.999e-12, cumulative = 8.84729e-07
GAMG:  Solving for p, Initial residual = 0.000143222, Final residual = 4.44906e-07, No Iterations 10
time step continuity errors : sum local = 3.53189e-12, global = -2.61782e-13, cumulative = 8.84729e-07
ExecutionTime = 0.18 s  ClockTime = 0 s

Time = 0.023

Courant Number mean: 0.0101533 max: 0.015713
smoothSolver:  Solving for Ux, Initial residual = 0.0137558, Final residual = 9.52859e-06, No Iterations 16
smoothSolver:  Solving for Uy, Initial residual = 0.0454126, Final residual = 7.13083e-06, No Iterations 18
GAMG:  Solving for p, Initial residual = 0.0044887, Final residual = 0.000438929, No Iterations 6
time step continuity errors : sum local = 3.47908e-09, global = 1.9507e-11, cumulative = 8.84748e-07
GAMG:  Solving for p, Initial residual = 0.0041903, Final residual = 0.000331838, No Iterations 6
time step continuity errors : sum local = 2.33059e-09, global = -9.67151e-11, cumulative = 8.84651e-07
GAMG:  Solving for p, Initial residual = 0.00105581, Final residual = 3.67734e-05, No Iterations 8
time step continuity errors : sum local = 2.81719e-10, global = -1.28221e-11, cumulative = 8.84639e-07
GAMG:  Solving for p, Initial residual = 0.000313258, Final residual = 2.43927e-05, No Iterations 6
time step continuity errors : sum local = 1.89338e-10, global = -9.59389e-12, cumulative = 8.84629e-07
GAMG:  Solving for p, Initial residual = 0.000140737, Final residual = 4.46042e-07, No Iterations 10
time step continuity errors : sum local = 3.47068e-12, global = -2.56651e-13, cumulative = 8.84629e-07
ExecutionTime = 0.19 s  ClockTime = 0 s

Time = 0.024

Courant Number mean: 0.0099321 max: 0.0153976
smoothSolver:  Solving for Ux, Initial residual = 0.0136933, Final residual = 9.5058e-06, No Iterations 16
smoothSolver:  Solving for Uy, Initial residual = 0.0332009, Final residual = 8.49343e-06, No Iterations 17
GAMG:  Solving for p, Initial residual = 0.00432959, Final residual = 0.000386653, No Iterations 7
time step continuity errors : sum local = 3.00385e-09, global = 3.19057e-10, cumulative = 8.84948e-07
GAMG:  Solving for p, Initial residual = 0.0039772, Final residual = 0.000339833, No Iterations 6
time step continuity errors : sum local = 2.32951e-09, global = -8.73914e-11, cumulative = 8.8486e-07
GAMG:  Solving for p, Initial residual = 0.000987037, Final residual = 3.46574e-05, No Iterations 8
time step continuity errors : sum local = 2.60297e-10, global = -8.53954e-12, cumulative = 8.84852e-07
GAMG:  Solving for p, Initial residual = 0.000337648, Final residual = 1.69045e-05, No Iterations 6
time step continuity errors : sum local = 1.28578e-10, global = -2.52515e-11, cumulative = 8.84827e-07
GAMG:  Solving for p, Initial residual = 0.000135015, Final residual = 4.5049e-07, No Iterations 10
time step continuity errors : sum local = 3.43438e-12, global = -2.1659e-13, cumulative = 8.84826e-07
ExecutionTime = 0.2 s  ClockTime = 0 s

Time = 0.025

Courant Number mean: 0.00971641 max: 0.0150852
smoothSolver:  Solving for Ux, Initial residual = 0.0136412, Final residual = 9.48694e-06, No Iterations 16
smoothSolver:  Solving for Uy, Initial residual = 0.024918, Final residual = 6.39553e-06, No Iterations 17
GAMG:  Solving for p, Initial residual = 0.00418806, Final residual = 0.000393932, No Iterations 7
time step continuity errors : sum local = 2.99862e-09, global = 3.67779e-10, cumulative = 8.85194e-07
GAMG:  Solving for p, Initial residual = 0.00388712, Final residual = 0.000351277, No Iterations 6
time step continuity errors : sum local = 2.35186e-09, global = -1.5183e-10, cumulative = 8.85042e-07
GAMG:  Solving for p, Initial residual = 0.00100611, Final residual = 3.24647e-05, No Iterations 8
time step continuity errors : sum local = 2.38781e-10, global = -8.01831e-12, cumulative = 8.85034e-07
GAMG:  Solving for p, Initial residual = 0.000336232, Final residual = 2.3452e-05, No Iterations 6
time step continuity errors : sum local = 1.74719e-10, global = -1.16213e-11, cumulative = 8.85023e-07
GAMG:  Solving for p, Initial residual = 0.000137811, Final residual = 4.65009e-07, No Iterations 10
time step continuity errors : sum local = 3.4724e-12, global = -2.3754e-13, cumulative = 8.85022e-07
ExecutionTime = 0.2 s  ClockTime = 0 s

Time = 0.026

Courant Number mean: 0.00950584 max: 0.0147765
smoothSolver:  Solving for Ux, Initial residual = 0.0135981, Final residual = 9.47149e-06, No Iterations 16
smoothSolver:  Solving for Uy, Initial residual = 0.0189778, Final residual = 7.93306e-06, No Iterations 16
GAMG:  Solving for p, Initial residual = 0.00407511, Final residual = 0.000123839, No Iterations 8
time step continuity errors : sum local = 9.2328e-10, global = 3.42861e-11, cumulative = 8.85057e-07
GAMG:  Solving for p, Initial residual = 0.00357242, Final residual = 0.000343563, No Iterations 7
time step continuity errors : sum local = 2.24796e-09, global = 1.45716e-10, cumulative = 8.85202e-07
GAMG:  Solving for p, Initial residual = 0.000918475, Final residual = 3.06485e-05, No Iterations 8
time step continuity errors : sum local = 2.20863e-10, global = -9.85125e-12, cumulative = 8.85193e-07
GAMG:  Solving for p, Initial residual = 0.000270079, Final residual = 1.03465e-05, No Iterations 8
time step continuity errors : sum local = 7.54233e-11, global = -1.48596e-11, cumulative = 8.85178e-07
GAMG:  Solving for p, Initial residual = 0.000123291, Final residual = 4.32878e-07, No Iterations 10
time step continuity errors : sum local = 3.16501e-12, global = -2.10148e-13, cumulative = 8.85178e-07
ExecutionTime = 0.21 s  ClockTime = 0 s

Time = 0.027

Courant Number mean: 0.00930016 max: 0.0144718
smoothSolver:  Solving for Ux, Initial residual = 0.0135623, Final residual = 9.45887e-06, No Iterations 16
smoothSolver:  Solving for Uy, Initial residual = 0.0145186, Final residual = 9.89237e-06, No Iterations 15
GAMG:  Solving for p, Initial residual = 0.0039775, Final residual = 0.000136223, No Iterations 8
time step continuity errors : sum local = 9.94407e-10, global = -2.18824e-12, cumulative = 8.85175e-07
GAMG:  Solving for p, Initial residual = 0.00348284, Final residual = 0.000126008, No Iterations 8
time step continuity errors : sum local = 8.05476e-10, global = -4.36495e-11, cumulative = 8.85132e-07
GAMG:  Solving for p, Initial residual = 0.000743381, Final residual = 2.45312e-05, No Iterations 8
time step continuity errors : sum local = 1.72993e-10, global = -3.59667e-12, cumulative = 8.85128e-07
GAMG:  Solving for p, Initial residual = 0.000260018, Final residual = 2.4307e-05, No Iterations 6
time step continuity errors : sum local = 1.73439e-10, global = -1.3249e-11, cumulative = 8.85115e-07
GAMG:  Solving for p, Initial residual = 0.000133287, Final residual = 4.39964e-07, No Iterations 10
time step continuity errors : sum local = 3.14862e-12, global = -2.11162e-13, cumulative = 8.85115e-07
ExecutionTime = 0.22 s  ClockTime = 0 s

Time = 0.028

Courant Number mean: 0.00909919 max: 0.0141715
smoothSolver:  Solving for Ux, Initial residual = 0.0135326, Final residual = 9.44854e-06, No Iterations 16
smoothSolver:  Solving for Uy, Initial residual = 0.0111127, Final residual = 7.60241e-06, No Iterations 15
GAMG:  Solving for p, Initial residual = 0.00388873, Final residual = 0.000133095, No Iterations 8
time step continuity errors : sum local = 9.51092e-10, global = 7.27098e-12, cumulative = 8.85122e-07
GAMG:  Solving for p, Initial residual = 0.00341988, Final residual = 0.000132397, No Iterations 8
time step continuity errors : sum local = 8.26092e-10, global = -3.59553e-11, cumulative = 8.85086e-07
GAMG:  Solving for p, Initial residual = 0.000749073, Final residual = 2.4268e-05, No Iterations 8
time step continuity errors : sum local = 1.67457e-10, global = -6.13099e-12, cumulative = 8.8508e-07
GAMG:  Solving for p, Initial residual = 0.000258408, Final residual = 1.06471e-05, No Iterations 8
time step continuity errors : sum local = 7.43442e-11, global = -4.57821e-12, cumulative = 8.85075e-07
GAMG:  Solving for p, Initial residual = 0.000121168, Final residual = 4.23793e-07, No Iterations 10
time step continuity errors : sum local = 2.96821e-12, global = -2.11932e-13, cumulative = 8.85075e-07
ExecutionTime = 0.23 s  ClockTime = 0 s

Time = 0.029

Courant Number mean: 0.00890277 max: 0.0138759
smoothSolver:  Solving for Ux, Initial residual = 0.0135083, Final residual = 9.4404e-06, No Iterations 16
smoothSolver:  Solving for Uy, Initial residual = 0.00843059, Final residual = 9.4053e-06, No Iterations 14
GAMG:  Solving for p, Initial residual = 0.00381973, Final residual = 0.000131093, No Iterations 8
time step continuity errors : sum local = 9.1667e-10, global = 3.53212e-11, cumulative = 8.8511e-07
GAMG:  Solving for p, Initial residual = 0.00335235, Final residual = 0.000114776, No Iterations 8
time step continuity errors : sum local = 6.99726e-10, global = -9.26138e-11, cumulative = 8.85018e-07
GAMG:  Solving for p, Initial residual = 0.000724119, Final residual = 2.34397e-05, No Iterations 8
time step continuity errors : sum local = 1.5823e-10, global = -5.12747e-12, cumulative = 8.85013e-07
GAMG:  Solving for p, Initial residual = 0.000260112, Final residual = 2.2501e-05, No Iterations 6
time step continuity errors : sum local = 1.53722e-10, global = -2.48577e-11, cumulative = 8.84988e-07
GAMG:  Solving for p, Initial residual = 0.000128663, Final residual = 4.34973e-07, No Iterations 10
time step continuity errors : sum local = 2.98032e-12, global = -1.95537e-13, cumulative = 8.84988e-07
ExecutionTime = 0.23 s  ClockTime = 0 s

Time = 0.03

Courant Number mean: 0.00871075 max: 0.013585
smoothSolver:  Solving for Ux, Initial residual = 0.0134881, Final residual = 9.43375e-06, No Iterations 16
smoothSolver:  Solving for Uy, Initial residual = 0.00631393, Final residual = 7.08158e-06, No Iterations 14
GAMG:  Solving for p, Initial residual = 0.00375942, Final residual = 0.000334706, No Iterations 7
time step continuity errors : sum local = 2.29004e-09, global = 9.30599e-11, cumulative = 8.85081e-07
GAMG:  Solving for p, Initial residual = 0.00346265, Final residual = 0.000106561, No Iterations 8
time step continuity errors : sum local = 6.34311e-10, global = -4.21629e-12, cumulative = 8.85076e-07
GAMG:  Solving for p, Initial residual = 0.000753906, Final residual = 2.85557e-05, No Iterations 8
time step continuity errors : sum local = 1.88439e-10, global = -5.89808e-12, cumulative = 8.85071e-07
GAMG:  Solving for p, Initial residual = 0.000265609, Final residual = 2.53885e-05, No Iterations 6
time step continuity errors : sum local = 1.69642e-10, global = -2.64495e-11, cumulative = 8.85044e-07
GAMG:  Solving for p, Initial residual = 0.000133055, Final residual = 4.50066e-07, No Iterations 10
time step continuity errors : sum local = 3.01644e-12, global = -1.98176e-13, cumulative = 8.85044e-07
ExecutionTime = 0.24 s  ClockTime = 0 s

Time = 0.031

Courant Number mean: 0.008523 max: 0.0132992
smoothSolver:  Solving for Ux, Initial residual = 0.0134718, Final residual = 9.42866e-06, No Iterations 16
smoothSolver:  Solving for Uy, Initial residual = 0.00460036, Final residual = 8.41298e-06, No Iterations 13
GAMG:  Solving for p, Initial residual = 0.00371687, Final residual = 0.000128128, No Iterations 8
time step continuity errors : sum local = 8.57495e-10, global = 1.0062e-10, cumulative = 8.85145e-07
GAMG:  Solving for p, Initial residual = 0.00328239, Final residual = 0.000118068, No Iterations 8
time step continuity errors : sum local = 6.85821e-10, global = -9.096e-11, cumulative = 8.85054e-07
GAMG:  Solving for p, Initial residual = 0.000731229, Final residual = 2.43267e-05, No Iterations 8
time step continuity errors : sum local = 1.57049e-10, global = -5.24454e-12, cumulative = 8.85048e-07
GAMG:  Solving for p, Initial residual = 0.00025801, Final residual = 1.06493e-05, No Iterations 8
time step continuity errors : sum local = 6.9596e-11, global = -4.52487e-12, cumulative = 8.85044e-07
GAMG:  Solving for p, Initial residual = 0.000119264, Final residual = 4.28759e-07, No Iterations 10
time step continuity errors : sum local = 2.81057e-12, global = -1.97507e-13, cumulative = 8.85044e-07
ExecutionTime = 0.24 s  ClockTime = 0 s

Time = 0.032

Courant Number mean: 0.00833938 max: 0.0130185
smoothSolver:  Solving for Ux, Initial residual = 0.0134587, Final residual = 9.4249e-06, No Iterations 16
smoothSolver:  Solving for Uy, Initial residual = 0.00323283, Final residual = 9.52062e-06, No Iterations 12
GAMG:  Solving for p, Initial residual = 0.00369909, Final residual = 0.000305526, No Iterations 7
time step continuity errors : sum local = 1.99945e-09, global = 3.63192e-10, cumulative = 8.85407e-07
GAMG:  Solving for p, Initial residual = 0.00336588, Final residual = 0.000295476, No Iterations 7
time step continuity errors : sum local = 1.67913e-09, global = -4.67431e-10, cumulative = 8.84939e-07
GAMG:  Solving for p, Initial residual = 0.000911802, Final residual = 3.91825e-05, No Iterations 8
time step continuity errors : sum local = 2.46957e-10, global = -7.81476e-12, cumulative = 8.84932e-07
GAMG:  Solving for p, Initial residual = 0.000321915, Final residual = 2.66321e-05, No Iterations 6
time step continuity errors : sum local = 1.70284e-10, global = -3.42704e-12, cumulative = 8.84928e-07
GAMG:  Solving for p, Initial residual = 0.000140082, Final residual = 4.67133e-07, No Iterations 10
time step continuity errors : sum local = 2.99396e-12, global = -2.15125e-13, cumulative = 8.84928e-07
ExecutionTime = 0.25 s  ClockTime = 0 s

Time = 0.033

Courant Number mean: 0.00815978 max: 0.0127429
smoothSolver:  Solving for Ux, Initial residual = 0.013448, Final residual = 9.42201e-06, No Iterations 16
smoothSolver:  Solving for Uy, Initial residual = 0.00224358, Final residual = 9.99129e-06, No Iterations 11
GAMG:  Solving for p, Initial residual = 0.00368521, Final residual = 0.000143309, No Iterations 8
time step continuity errors : sum local = 9.17043e-10, global = 4.03813e-11, cumulative = 8.84968e-07
GAMG:  Solving for p, Initial residual = 0.0032566, Final residual = 0.000139102, No Iterations 8
time step continuity errors : sum local = 7.71022e-10, global = -3.30131e-11, cumulative = 8.84935e-07
GAMG:  Solving for p, Initial residual = 0.000761627, Final residual = 2.53691e-05, No Iterations 8
time step continuity errors : sum local = 1.56528e-10, global = -2.30588e-12, cumulative = 8.84933e-07
GAMG:  Solving for p, Initial residual = 0.000257989, Final residual = 1.06469e-05, No Iterations 8
time step continuity errors : sum local = 6.6511e-11, global = -4.81289e-12, cumulative = 8.84928e-07
GAMG:  Solving for p, Initial residual = 0.000118226, Final residual = 4.27985e-07, No Iterations 10
time step continuity errors : sum local = 2.68186e-12, global = -1.8642e-13, cumulative = 8.84928e-07
ExecutionTime = 0.26 s  ClockTime = 0 s

Time = 0.034

Courant Number mean: 0.0079841 max: 0.0124725
smoothSolver:  Solving for Ux, Initial residual = 0.0134396, Final residual = 9.42007e-06, No Iterations 16
smoothSolver:  Solving for Uy, Initial residual = 0.00162102, Final residual = 6.65186e-06, No Iterations 11
GAMG:  Solving for p, Initial residual = 0.00367842, Final residual = 0.000304015, No Iterations 7
time step continuity errors : sum local = 1.90186e-09, global = 3.03785e-10, cumulative = 8.85232e-07
GAMG:  Solving for p, Initial residual = 0.00333409, Final residual = 0.000106925, No Iterations 8
time step continuity errors : sum local = 5.79362e-10, global = -1.31739e-11, cumulative = 8.85219e-07
GAMG:  Solving for p, Initial residual = 0.00075523, Final residual = 3.17592e-05, No Iterations 8
time step continuity errors : sum local = 1.91405e-10, global = -5.30748e-12, cumulative = 8.85213e-07
GAMG:  Solving for p, Initial residual = 0.000266536, Final residual = 2.38632e-05, No Iterations 6
time step continuity errors : sum local = 1.45706e-10, global = -2.2395e-11, cumulative = 8.85191e-07
GAMG:  Solving for p, Initial residual = 0.000128338, Final residual = 4.33484e-07, No Iterations 10
time step continuity errors : sum local = 2.65499e-12, global = -1.7446e-13, cumulative = 8.85191e-07
ExecutionTime = 0.26 s  ClockTime = 0 s

Time = 0.035

Courant Number mean: 0.00781223 max: 0.0122072
smoothSolver:  Solving for Ux, Initial residual = 0.0134329, Final residual = 9.41872e-06, No Iterations 16
smoothSolver:  Solving for Uy, Initial residual = 0.00152573, Final residual = 9.58845e-06, No Iterations 10
GAMG:  Solving for p, Initial residual = 0.00369226, Final residual = 0.000360096, No Iterations 7
time step continuity errors : sum local = 2.20218e-09, global = 7.03003e-11, cumulative = 8.85261e-07
GAMG:  Solving for p, Initial residual = 0.00339793, Final residual = 0.000114317, No Iterations 8
time step continuity errors : sum local = 6.04188e-10, global = -7.82688e-11, cumulative = 8.85183e-07
GAMG:  Solving for p, Initial residual = 0.000754597, Final residual = 2.7016e-05, No Iterations 8
time step continuity errors : sum local = 1.59174e-10, global = -4.9492e-12, cumulative = 8.85178e-07
GAMG:  Solving for p, Initial residual = 0.000270413, Final residual = 2.55957e-05, No Iterations 6
time step continuity errors : sum local = 1.52757e-10, global = -1.93593e-11, cumulative = 8.85158e-07
GAMG:  Solving for p, Initial residual = 0.000133887, Final residual = 4.53589e-07, No Iterations 10
time step continuity errors : sum local = 2.71525e-12, global = -1.86175e-13, cumulative = 8.85158e-07
ExecutionTime = 0.27 s  ClockTime = 0 s

Time = 0.036

Courant Number mean: 0.00764408 max: 0.0119472
smoothSolver:  Solving for Ux, Initial residual = 0.0134277, Final residual = 9.41806e-06, No Iterations 16
smoothSolver:  Solving for Uy, Initial residual = 0.00175028, Final residual = 6.70554e-06, No Iterations 11
GAMG:  Solving for p, Initial residual = 0.00368687, Final residual = 0.000353564, No Iterations 7
time step continuity errors : sum local = 2.11337e-09, global = 6.59215e-11, cumulative = 8.85224e-07
GAMG:  Solving for p, Initial residual = 0.00339142, Final residual = 0.000114293, No Iterations 8
time step continuity errors : sum local = 5.89874e-10, global = -7.5057e-11, cumulative = 8.85149e-07
GAMG:  Solving for p, Initial residual = 0.000752687, Final residual = 2.74469e-05, No Iterations 8
time step continuity errors : sum local = 1.58025e-10, global = -7.50382e-12, cumulative = 8.85142e-07
GAMG:  Solving for p, Initial residual = 0.000270273, Final residual = 2.36054e-05, No Iterations 6
time step continuity errors : sum local = 1.37678e-10, global = -2.61254e-11, cumulative = 8.85115e-07
GAMG:  Solving for p, Initial residual = 0.000129709, Final residual = 4.39837e-07, No Iterations 10
time step continuity errors : sum local = 2.57311e-12, global = -1.7154e-13, cumulative = 8.85115e-07
ExecutionTime = 0.27 s  ClockTime = 0 s

Time = 0.037

Courant Number mean: 0.00747956 max: 0.0116922
smoothSolver:  Solving for Ux, Initial residual = 0.0134239, Final residual = 9.41791e-06, No Iterations 16
smoothSolver:  Solving for Uy, Initial residual = 0.00200551, Final residual = 7.4541e-06, No Iterations 11
GAMG:  Solving for p, Initial residual = 0.00368946, Final residual = 0.000131449, No Iterations 8
time step continuity errors : sum local = 7.67865e-10, global = 7.79172e-11, cumulative = 8.85193e-07
GAMG:  Solving for p, Initial residual = 0.00322038, Final residual = 0.000125306, No Iterations 8
time step continuity errors : sum local = 6.30983e-10, global = -8.12467e-11, cumulative = 8.85112e-07
GAMG:  Solving for p, Initial residual = 0.000741252, Final residual = 2.52988e-05, No Iterations 8
time step continuity errors : sum local = 1.42415e-10, global = -5.23292e-12, cumulative = 8.85107e-07
GAMG:  Solving for p, Initial residual = 0.000259262, Final residual = 1.04209e-05, No Iterations 8
time step continuity errors : sum local = 5.93982e-11, global = -6.00746e-12, cumulative = 8.85101e-07
GAMG:  Solving for p, Initial residual = 0.000116231, Final residual = 4.32731e-07, No Iterations 10
time step continuity errors : sum local = 2.47409e-12, global = -1.68048e-13, cumulative = 8.85101e-07
ExecutionTime = 0.28 s  ClockTime = 0 s

Time = 0.038

Courant Number mean: 0.00731858 max: 0.0114424
smoothSolver:  Solving for Ux, Initial residual = 0.0134214, Final residual = 9.4183e-06, No Iterations 16
smoothSolver:  Solving for Uy, Initial residual = 0.00221961, Final residual = 8.67463e-06, No Iterations 11
GAMG:  Solving for p, Initial residual = 0.00369953, Final residual = 0.000310411, No Iterations 7
time step continuity errors : sum local = 1.77177e-09, global = 2.77608e-10, cumulative = 8.85378e-07
GAMG:  Solving for p, Initial residual = 0.00332527, Final residual = 0.000111132, No Iterations 8
time step continuity errors : sum local = 5.47584e-10, global = -1.02586e-11, cumulative = 8.85368e-07
GAMG:  Solving for p, Initial residual = 0.000762533, Final residual = 3.28641e-05, No Iterations 8
time step continuity errors : sum local = 1.80613e-10, global = -5.06e-12, cumulative = 8.85363e-07
GAMG:  Solving for p, Initial residual = 0.000267227, Final residual = 2.4008e-05, No Iterations 6
time step continuity errors : sum local = 1.33698e-10, global = -2.0322e-11, cumulative = 8.85343e-07
GAMG:  Solving for p, Initial residual = 0.000127575, Final residual = 4.32912e-07, No Iterations 10
time step continuity errors : sum local = 2.41833e-12, global = -1.58865e-13, cumulative = 8.85342e-07
ExecutionTime = 0.28 s  ClockTime = 0 s

Time = 0.039

Courant Number mean: 0.00716106 max: 0.0111976
smoothSolver:  Solving for Ux, Initial residual = 0.0134194, Final residual = 9.41883e-06, No Iterations 16
smoothSolver:  Solving for Uy, Initial residual = 0.00242025, Final residual = 6.26404e-06, No Iterations 12
GAMG:  Solving for p, Initial residual = 0.00372021, Final residual = 0.00035111, No Iterations 7
time step continuity errors : sum local = 1.9584e-09, global = 5.62146e-11, cumulative = 8.85399e-07
GAMG:  Solving for p, Initial residual = 0.00338323, Final residual = 0.000270249, No Iterations 7
time step continuity errors : sum local = 1.29911e-09, global = -2.41131e-10, cumulative = 8.85157e-07
GAMG:  Solving for p, Initial residual = 0.000886397, Final residual = 3.56029e-05, No Iterations 8
time step continuity errors : sum local = 1.91071e-10, global = -5.39898e-12, cumulative = 8.85152e-07
GAMG:  Solving for p, Initial residual = 0.000281496, Final residual = 1.85859e-05, No Iterations 7
time step continuity errors : sum local = 1.01203e-10, global = -1.85135e-11, cumulative = 8.85134e-07
GAMG:  Solving for p, Initial residual = 0.00011358, Final residual = 3.68102e-07, No Iterations 10
time step continuity errors : sum local = 2.00925e-12, global = -1.32525e-13, cumulative = 8.85133e-07
ExecutionTime = 0.29 s  ClockTime = 0 s

Time = 0.04

Courant Number mean: 0.00700692 max: 0.0109579
smoothSolver:  Solving for Ux, Initial residual = 0.0134184, Final residual = 9.4198e-06, No Iterations 16
smoothSolver:  Solving for Uy, Initial residual = 0.00264874, Final residual = 7.18309e-06, No Iterations 12
GAMG:  Solving for p, Initial residual = 0.00371495, Final residual = 0.000318869, No Iterations 7
time step continuity errors : sum local = 1.73771e-09, global = 2.99431e-10, cumulative = 8.85433e-07
GAMG:  Solving for p, Initial residual = 0.00333949, Final residual = 0.000110169, No Iterations 8
time step continuity errors : sum local = 5.17539e-10, global = -1.16616e-11, cumulative = 8.85421e-07
GAMG:  Solving for p, Initial residual = 0.000760768, Final residual = 3.24822e-05, No Iterations 8
time step continuity errors : sum local = 1.70405e-10, global = -4.75323e-12, cumulative = 8.85416e-07
GAMG:  Solving for p, Initial residual = 0.000266555, Final residual = 2.41166e-05, No Iterations 6
time step continuity errors : sum local = 1.28209e-10, global = -1.88859e-11, cumulative = 8.85398e-07
GAMG:  Solving for p, Initial residual = 0.000127428, Final residual = 4.31983e-07, No Iterations 10
time step continuity errors : sum local = 2.30364e-12, global = -1.50856e-13, cumulative = 8.85397e-07
ExecutionTime = 0.3 s  ClockTime = 0 s

Time = 0.041

Courant Number mean: 0.00685608 max: 0.010723
smoothSolver:  Solving for Ux, Initial residual = 0.0134178, Final residual = 9.4209e-06, No Iterations 16
smoothSolver:  Solving for Uy, Initial residual = 0.00291726, Final residual = 7.95091e-06, No Iterations 12
GAMG:  Solving for p, Initial residual = 0.00373795, Final residual = 0.000350312, No Iterations 7
time step continuity errors : sum local = 1.86527e-09, global = 5.20605e-11, cumulative = 8.85449e-07
GAMG:  Solving for p, Initial residual = 0.00338537, Final residual = 0.000132606, No Iterations 8
time step continuity errors : sum local = 6.08024e-10, global = -6.23753e-12, cumulative = 8.85443e-07
GAMG:  Solving for p, Initial residual = 0.00079064, Final residual = 3.59625e-05, No Iterations 8
time step continuity errors : sum local = 1.84334e-10, global = -5.84749e-12, cumulative = 8.85437e-07
GAMG:  Solving for p, Initial residual = 0.000270847, Final residual = 2.28624e-05, No Iterations 6
time step continuity errors : sum local = 1.18758e-10, global = -2.02461e-11, cumulative = 8.85417e-07
GAMG:  Solving for p, Initial residual = 0.000125714, Final residual = 4.25712e-07, No Iterations 10
time step continuity errors : sum local = 2.21795e-12, global = -1.44937e-13, cumulative = 8.85417e-07
ExecutionTime = 0.3 s  ClockTime = 0 s

Time = 0.042

Courant Number mean: 0.00670847 max: 0.010493
smoothSolver:  Solving for Ux, Initial residual = 0.0134178, Final residual = 9.42224e-06, No Iterations 16
smoothSolver:  Solving for Uy, Initial residual = 0.00315199, Final residual = 8.64453e-06, No Iterations 12
GAMG:  Solving for p, Initial residual = 0.00373547, Final residual = 0.000202032, No Iterations 8
time step continuity errors : sum local = 1.05099e-09, global = 4.99279e-11, cumulative = 8.85467e-07
GAMG:  Solving for p, Initial residual = 0.00328087, Final residual = 0.000143065, No Iterations 8
time step continuity errors : sum local = 6.40175e-10, global = -2.80605e-11, cumulative = 8.85439e-07
GAMG:  Solving for p, Initial residual = 0.000770963, Final residual = 2.60408e-05, No Iterations 8
time step continuity errors : sum local = 1.30477e-10, global = -3.69022e-12, cumulative = 8.85435e-07
GAMG:  Solving for p, Initial residual = 0.000254518, Final residual = 2.32904e-05, No Iterations 6
time step continuity errors : sum local = 1.18188e-10, global = -1.76687e-11, cumulative = 8.85417e-07
GAMG:  Solving for p, Initial residual = 0.00012428, Final residual = 4.29756e-07, No Iterations 10
time step continuity errors : sum local = 2.18734e-12, global = -1.44041e-13, cumulative = 8.85417e-07
ExecutionTime = 0.31 s  ClockTime = 0 s

Time = 0.043

Courant Number mean: 0.00656403 max: 0.0102678
smoothSolver:  Solving for Ux, Initial residual = 0.0134183, Final residual = 9.42373e-06, No Iterations 16
smoothSolver:  Solving for Uy, Initial residual = 0.00335507, Final residual = 9.24756e-06, No Iterations 12
GAMG:  Solving for p, Initial residual = 0.00374439, Final residual = 0.000349809, No Iterations 7
time step continuity errors : sum local = 1.7778e-09, global = 4.63237e-11, cumulative = 8.85464e-07
GAMG:  Solving for p, Initial residual = 0.00338789, Final residual = 0.000147292, No Iterations 8
time step continuity errors : sum local = 6.44162e-10, global = 3.76296e-11, cumulative = 8.85501e-07
GAMG:  Solving for p, Initial residual = 0.000816444, Final residual = 3.67345e-05, No Iterations 8
time step continuity errors : sum local = 1.79706e-10, global = -6.91203e-12, cumulative = 8.85494e-07
GAMG:  Solving for p, Initial residual = 0.000274765, Final residual = 2.32378e-05, No Iterations 6
time step continuity errors : sum local = 1.15202e-10, global = -1.55653e-11, cumulative = 8.85479e-07
GAMG:  Solving for p, Initial residual = 0.000125975, Final residual = 4.27332e-07, No Iterations 10
time step continuity errors : sum local = 2.12492e-12, global = -1.37344e-13, cumulative = 8.85479e-07
ExecutionTime = 0.32 s  ClockTime = 0 s

Time = 0.044

Courant Number mean: 0.00642267 max: 0.0100472
smoothSolver:  Solving for Ux, Initial residual = 0.0134191, Final residual = 9.42537e-06, No Iterations 16
smoothSolver:  Solving for Uy, Initial residual = 0.00352601, Final residual = 9.76613e-06, No Iterations 12
GAMG:  Solving for p, Initial residual = 0.00374783, Final residual = 0.000317947, No Iterations 7
time step continuity errors : sum local = 1.57857e-09, global = 2.55428e-10, cumulative = 8.85734e-07
GAMG:  Solving for p, Initial residual = 0.00335511, Final residual = 0.000109768, No Iterations 8
time step continuity errors : sum local = 4.69103e-10, global = -1.24223e-11, cumulative = 8.85722e-07
GAMG:  Solving for p, Initial residual = 0.00076239, Final residual = 3.33482e-05, No Iterations 8
time step continuity errors : sum local = 1.59349e-10, global = -4.48248e-12, cumulative = 8.85717e-07
GAMG:  Solving for p, Initial residual = 0.000266432, Final residual = 2.40794e-05, No Iterations 6
time step continuity errors : sum local = 1.16605e-10, global = -1.76156e-11, cumulative = 8.857e-07
GAMG:  Solving for p, Initial residual = 0.000126729, Final residual = 4.31235e-07, No Iterations 10
time step continuity errors : sum local = 2.09476e-12, global = -1.37943e-13, cumulative = 8.85699e-07
ExecutionTime = 0.33 s  ClockTime = 0 s

Time = 0.045

Courant Number mean: 0.00628434 max: 0.0098313
smoothSolver:  Solving for Ux, Initial residual = 0.0134202, Final residual = 9.4271e-06, No Iterations 16
smoothSolver:  Solving for Uy, Initial residual = 0.00367208, Final residual = 6.26014e-06, No Iterations 13
GAMG:  Solving for p, Initial residual = 0.00375383, Final residual = 0.000351759, No Iterations 7
time step continuity errors : sum local = 1.70611e-09, global = 4.59385e-11, cumulative = 8.85745e-07
GAMG:  Solving for p, Initial residual = 0.00339702, Final residual = 0.000145434, No Iterations 8
time step continuity errors : sum local = 6.06882e-10, global = 2.79399e-11, cumulative = 8.85773e-07
GAMG:  Solving for p, Initial residual = 0.000812629, Final residual = 3.79705e-05, No Iterations 8
time step continuity errors : sum local = 1.77274e-10, global = -8.5997e-12, cumulative = 8.85765e-07
GAMG:  Solving for p, Initial residual = 0.000273085, Final residual = 2.51467e-05, No Iterations 6
time step continuity errors : sum local = 1.18971e-10, global = -1.744e-11, cumulative = 8.85747e-07
GAMG:  Solving for p, Initial residual = 0.00012802, Final residual = 4.43529e-07, No Iterations 10
time step continuity errors : sum local = 2.10472e-12, global = -1.37595e-13, cumulative = 8.85747e-07
ExecutionTime = 0.33 s  ClockTime = 0 s

Time = 0.046

Courant Number mean: 0.00614897 max: 0.00961992
smoothSolver:  Solving for Ux, Initial residual = 0.0134214, Final residual = 9.42888e-06, No Iterations 16
smoothSolver:  Solving for Uy, Initial residual = 0.00379884, Final residual = 6.49304e-06, No Iterations 13
GAMG:  Solving for p, Initial residual = 0.00375154, Final residual = 0.000374706, No Iterations 7
time step continuity errors : sum local = 1.77545e-09, global = 5.11946e-11, cumulative = 8.85798e-07
GAMG:  Solving for p, Initial residual = 0.00342179, Final residual = 0.000117775, No Iterations 8
time step continuity errors : sum local = 4.79958e-10, global = -6.16404e-11, cumulative = 8.85737e-07
GAMG:  Solving for p, Initial residual = 0.000763697, Final residual = 2.77133e-05, No Iterations 8
time step continuity errors : sum local = 1.26419e-10, global = -4.79762e-12, cumulative = 8.85732e-07
GAMG:  Solving for p, Initial residual = 0.000268934, Final residual = 2.58771e-05, No Iterations 6
time step continuity errors : sum local = 1.19592e-10, global = -1.4993e-11, cumulative = 8.85717e-07
GAMG:  Solving for p, Initial residual = 0.000132624, Final residual = 4.51755e-07, No Iterations 10
time step continuity errors : sum local = 2.09415e-12, global = -1.43948e-13, cumulative = 8.85717e-07
ExecutionTime = 0.34 s  ClockTime = 0 s

Time = 0.047

Courant Number mean: 0.00601649 max: 0.00941299
smoothSolver:  Solving for Ux, Initial residual = 0.0134229, Final residual = 9.43074e-06, No Iterations 16
smoothSolver:  Solving for Uy, Initial residual = 0.00390544, Final residual = 6.69144e-06, No Iterations 13
GAMG:  Solving for p, Initial residual = 0.00374959, Final residual = 0.000351781, No Iterations 7
time step continuity errors : sum local = 1.6283e-09, global = 4.42353e-11, cumulative = 8.85761e-07
GAMG:  Solving for p, Initial residual = 0.00340065, Final residual = 0.000145398, No Iterations 8
time step continuity errors : sum local = 5.78887e-10, global = 2.63392e-11, cumulative = 8.85787e-07
GAMG:  Solving for p, Initial residual = 0.000810108, Final residual = 3.78273e-05, No Iterations 8
time step continuity errors : sum local = 1.68534e-10, global = -7.99168e-12, cumulative = 8.85779e-07
GAMG:  Solving for p, Initial residual = 0.000272175, Final residual = 2.51475e-05, No Iterations 6
time step continuity errors : sum local = 1.13539e-10, global = -1.66921e-11, cumulative = 8.85763e-07
GAMG:  Solving for p, Initial residual = 0.000127968, Final residual = 4.43114e-07, No Iterations 10
time step continuity errors : sum local = 2.00667e-12, global = -1.31143e-13, cumulative = 8.85763e-07
ExecutionTime = 0.34 s  ClockTime = 0 s

Time = 0.048

Courant Number mean: 0.00588684 max: 0.00921042
smoothSolver:  Solving for Ux, Initial residual = 0.0134246, Final residual = 9.43264e-06, No Iterations 16
smoothSolver:  Solving for Uy, Initial residual = 0.00400024, Final residual = 6.86328e-06, No Iterations 13
GAMG:  Solving for p, Initial residual = 0.00375333, Final residual = 0.000371005, No Iterations 7
time step continuity errors : sum local = 1.67759e-09, global = 4.80108e-11, cumulative = 8.85811e-07
GAMG:  Solving for p, Initial residual = 0.00341859, Final residual = 0.000119174, No Iterations 8
time step continuity errors : sum local = 4.63436e-10, global = -5.99878e-11, cumulative = 8.85751e-07
GAMG:  Solving for p, Initial residual = 0.000760509, Final residual = 2.79319e-05, No Iterations 8
time step continuity errors : sum local = 1.21591e-10, global = -4.62689e-12, cumulative = 8.85746e-07
GAMG:  Solving for p, Initial residual = 0.000269477, Final residual = 2.56896e-05, No Iterations 6
time step continuity errors : sum local = 1.13302e-10, global = -1.45891e-11, cumulative = 8.85731e-07
GAMG:  Solving for p, Initial residual = 0.000132564, Final residual = 4.51163e-07, No Iterations 10
time step continuity errors : sum local = 1.99583e-12, global = -1.37285e-13, cumulative = 8.85731e-07
ExecutionTime = 0.35 s  ClockTime = 0 s

Time = 0.049

Courant Number mean: 0.00575996 max: 0.00901214
smoothSolver:  Solving for Ux, Initial residual = 0.0134263, Final residual = 9.43456e-06, No Iterations 16
smoothSolver:  Solving for Uy, Initial residual = 0.00407749, Final residual = 7.00676e-06, No Iterations 13
GAMG:  Solving for p, Initial residual = 0.00374961, Final residual = 0.000352803, No Iterations 7
time step continuity errors : sum local = 1.55841e-09, global = 4.20246e-11, cumulative = 8.85773e-07
GAMG:  Solving for p, Initial residual = 0.00340104, Final residual = 0.000134289, No Iterations 8
time step continuity errors : sum local = 5.10206e-10, global = -1.52686e-11, cumulative = 8.85758e-07
GAMG:  Solving for p, Initial residual = 0.000791832, Final residual = 3.52848e-05, No Iterations 8
time step continuity errors : sum local = 1.50019e-10, global = -7.36091e-12, cumulative = 8.85751e-07
GAMG:  Solving for p, Initial residual = 0.000267232, Final residual = 2.27294e-05, No Iterations 6
time step continuity errors : sum local = 9.79377e-11, global = -1.65583e-11, cumulative = 8.85734e-07
GAMG:  Solving for p, Initial residual = 0.000124611, Final residual = 4.22565e-07, No Iterations 10
time step continuity errors : sum local = 1.82619e-12, global = -1.19153e-13, cumulative = 8.85734e-07
ExecutionTime = 0.36 s  ClockTime = 0 s

Time = 0.05

Courant Number mean: 0.0056358 max: 0.00881806
smoothSolver:  Solving for Ux, Initial residual = 0.0134282, Final residual = 9.43652e-06, No Iterations 16
smoothSolver:  Solving for Uy, Initial residual = 0.00414644, Final residual = 7.13132e-06, No Iterations 13
GAMG:  Solving for p, Initial residual = 0.00374781, Final residual = 0.000369937, No Iterations 7
time step continuity errors : sum local = 1.59631e-09, global = 3.80483e-11, cumulative = 8.85772e-07
GAMG:  Solving for p, Initial residual = 0.00341522, Final residual = 0.000117461, No Iterations 8
time step continuity errors : sum local = 4.35949e-10, global = -5.47998e-11, cumulative = 8.85717e-07
GAMG:  Solving for p, Initial residual = 0.000760472, Final residual = 2.77085e-05, No Iterations 8
time step continuity errors : sum local = 1.15113e-10, global = -3.85454e-12, cumulative = 8.85713e-07
GAMG:  Solving for p, Initial residual = 0.000268459, Final residual = 2.58472e-05, No Iterations 6
time step continuity errors : sum local = 1.08789e-10, global = -1.28098e-11, cumulative = 8.857e-07
GAMG:  Solving for p, Initial residual = 0.000132108, Final residual = 4.50378e-07, No Iterations 10
time step continuity errors : sum local = 1.90137e-12, global = -1.3044e-13, cumulative = 8.857e-07
ExecutionTime = 0.36 s  ClockTime = 0 s

Time = 0.051

Courant Number mean: 0.0055143 max: 0.0086281
smoothSolver:  Solving for Ux, Initial residual = 0.0134301, Final residual = 9.43846e-06, No Iterations 16
smoothSolver:  Solving for Uy, Initial residual = 0.00420229, Final residual = 7.23488e-06, No Iterations 13
GAMG:  Solving for p, Initial residual = 0.00374865, Final residual = 0.000353899, No Iterations 7
time step continuity errors : sum local = 1.49184e-09, global = 3.92121e-11, cumulative = 8.8574e-07
GAMG:  Solving for p, Initial residual = 0.00339919, Final residual = 0.00012591, No Iterations 8
time step continuity errors : sum local = 4.56562e-10, global = -6.32607e-12, cumulative = 8.85733e-07
GAMG:  Solving for p, Initial residual = 0.000782192, Final residual = 3.32751e-05, No Iterations 8
time step continuity errors : sum local = 1.35028e-10, global = -3.98843e-12, cumulative = 8.85729e-07
GAMG:  Solving for p, Initial residual = 0.000266347, Final residual = 2.33382e-05, No Iterations 6
time step continuity errors : sum local = 9.59628e-11, global = -1.54863e-11, cumulative = 8.85714e-07
GAMG:  Solving for p, Initial residual = 0.000125386, Final residual = 4.24036e-07, No Iterations 10
time step continuity errors : sum local = 1.74885e-12, global = -1.1535e-13, cumulative = 8.85714e-07
ExecutionTime = 0.37 s  ClockTime = 0 s

Time = 0.052

Courant Number mean: 0.00539539 max: 0.00844217
smoothSolver:  Solving for Ux, Initial residual = 0.0134321, Final residual = 9.44042e-06, No Iterations 16
smoothSolver:  Solving for Uy, Initial residual = 0.00425168, Final residual = 7.32379e-06, No Iterations 13
GAMG:  Solving for p, Initial residual = 0.00374596, Final residual = 0.000367961, No Iterations 7
time step continuity errors : sum local = 1.51529e-09, global = 3.62516e-11, cumulative = 8.8575e-07
GAMG:  Solving for p, Initial residual = 0.00340987, Final residual = 0.000118405, No Iterations 8
time step continuity errors : sum local = 4.19438e-10, global = -5.39098e-11, cumulative = 8.85696e-07
GAMG:  Solving for p, Initial residual = 0.000758725, Final residual = 2.7826e-05, No Iterations 8
time step continuity errors : sum local = 1.10326e-10, global = -3.68027e-12, cumulative = 8.85692e-07
GAMG:  Solving for p, Initial residual = 0.00026841, Final residual = 2.5693e-05, No Iterations 6
time step continuity errors : sum local = 1.03206e-10, global = -1.27839e-11, cumulative = 8.8568e-07
GAMG:  Solving for p, Initial residual = 0.000131921, Final residual = 4.49347e-07, No Iterations 10
time step continuity errors : sum local = 1.81043e-12, global = -1.24435e-13, cumulative = 8.85679e-07
ExecutionTime = 0.38 s  ClockTime = 0 s

Time = 0.053

Courant Number mean: 0.00527902 max: 0.0082602
smoothSolver:  Solving for Ux, Initial residual = 0.013434, Final residual = 9.44236e-06, No Iterations 16
smoothSolver:  Solving for Uy, Initial residual = 0.00429058, Final residual = 7.39651e-06, No Iterations 13
GAMG:  Solving for p, Initial residual = 0.00374534, Final residual = 0.000352981, No Iterations 7
time step continuity errors : sum local = 1.42006e-09, global = 3.75913e-11, cumulative = 8.85717e-07
GAMG:  Solving for p, Initial residual = 0.00339477, Final residual = 0.000117903, No Iterations 8
time step continuity errors : sum local = 4.08068e-10, global = -3.52722e-12, cumulative = 8.85713e-07
GAMG:  Solving for p, Initial residual = 0.000773706, Final residual = 3.0528e-05, No Iterations 8
time step continuity errors : sum local = 1.1824e-10, global = -3.20929e-12, cumulative = 8.8571e-07
GAMG:  Solving for p, Initial residual = 0.000264472, Final residual = 2.5956e-05, No Iterations 6
time step continuity errors : sum local = 1.01854e-10, global = -1.53535e-11, cumulative = 8.85695e-07
GAMG:  Solving for p, Initial residual = 0.000129052, Final residual = 4.44671e-07, No Iterations 10
time step continuity errors : sum local = 1.75027e-12, global = -1.18108e-13, cumulative = 8.85695e-07
ExecutionTime = 0.38 s  ClockTime = 0 s

Time = 0.054

Courant Number mean: 0.00516515 max: 0.00808211
smoothSolver:  Solving for Ux, Initial residual = 0.013436, Final residual = 9.4443e-06, No Iterations 16
smoothSolver:  Solving for Uy, Initial residual = 0.00432534, Final residual = 7.45909e-06, No Iterations 13
GAMG:  Solving for p, Initial residual = 0.00374232, Final residual = 0.000369068, No Iterations 7
time step continuity errors : sum local = 1.45053e-09, global = 3.74736e-11, cumulative = 8.85732e-07
GAMG:  Solving for p, Initial residual = 0.00340741, Final residual = 0.000118709, No Iterations 8
time step continuity errors : sum local = 4.01376e-10, global = -5.17181e-11, cumulative = 8.85681e-07
GAMG:  Solving for p, Initial residual = 0.000757902, Final residual = 2.78675e-05, No Iterations 8
time step continuity errors : sum local = 1.05454e-10, global = -4.01323e-12, cumulative = 8.85677e-07
GAMG:  Solving for p, Initial residual = 0.000268098, Final residual = 2.56183e-05, No Iterations 6
time step continuity errors : sum local = 9.82147e-11, global = -1.19318e-11, cumulative = 8.85665e-07
GAMG:  Solving for p, Initial residual = 0.000131711, Final residual = 4.4903e-07, No Iterations 10
time step continuity errors : sum local = 1.72667e-12, global = -1.18526e-13, cumulative = 8.85664e-07
ExecutionTime = 0.39 s  ClockTime = 0 s

Time = 0.055

Courant Number mean: 0.00505371 max: 0.00790782
smoothSolver:  Solving for Ux, Initial residual = 0.0134381, Final residual = 9.44622e-06, No Iterations 16
smoothSolver:  Solving for Uy, Initial residual = 0.00435188, Final residual = 7.50886e-06, No Iterations 13
GAMG:  Solving for p, Initial residual = 0.00374143, Final residual = 0.000353832, No Iterations 7
time step continuity errors : sum local = 1.35859e-09, global = 3.55923e-11, cumulative = 8.857e-07
GAMG:  Solving for p, Initial residual = 0.00339076, Final residual = 0.000121938, No Iterations 8
time step continuity errors : sum local = 4.02867e-10, global = -6.49274e-12, cumulative = 8.85694e-07
GAMG:  Solving for p, Initial residual = 0.000776527, Final residual = 3.21303e-05, No Iterations 8
time step continuity errors : sum local = 1.18774e-10, global = -3.34636e-12, cumulative = 8.8569e-07
GAMG:  Solving for p, Initial residual = 0.000264961, Final residual = 2.34283e-05, No Iterations 6
time step continuity errors : sum local = 8.77494e-11, global = -1.39847e-11, cumulative = 8.85676e-07
GAMG:  Solving for p, Initial residual = 0.000125337, Final residual = 4.23206e-07, No Iterations 10
time step continuity errors : sum local = 1.58991e-12, global = -1.05278e-13, cumulative = 8.85676e-07
ExecutionTime = 0.4 s  ClockTime = 0 s

Time = 0.056

Courant Number mean: 0.00494466 max: 0.00773724
smoothSolver:  Solving for Ux, Initial residual = 0.0134401, Final residual = 9.44812e-06, No Iterations 16
smoothSolver:  Solving for Uy, Initial residual = 0.00437611, Final residual = 7.55162e-06, No Iterations 13
GAMG:  Solving for p, Initial residual = 0.00373773, Final residual = 0.000368788, No Iterations 7
time step continuity errors : sum local = 1.38338e-09, global = 3.25476e-11, cumulative = 8.85709e-07
GAMG:  Solving for p, Initial residual = 0.00340138, Final residual = 0.000117722, No Iterations 8
time step continuity errors : sum local = 3.80004e-10, global = -4.90336e-11, cumulative = 8.8566e-07
GAMG:  Solving for p, Initial residual = 0.000757648, Final residual = 2.76764e-05, No Iterations 8
time step continuity errors : sum local = 9.99672e-11, global = -3.18233e-12, cumulative = 8.85656e-07
GAMG:  Solving for p, Initial residual = 0.000267364, Final residual = 2.5682e-05, No Iterations 6
time step continuity errors : sum local = 9.39758e-11, global = -1.15988e-11, cumulative = 8.85645e-07
GAMG:  Solving for p, Initial residual = 0.000131525, Final residual = 4.47919e-07, No Iterations 10
time step continuity errors : sum local = 1.64398e-12, global = -1.13042e-13, cumulative = 8.85645e-07
ExecutionTime = 0.41 s  ClockTime = 0 s

Time = 0.057

Courant Number mean: 0.00483795 max: 0.00757031
smoothSolver:  Solving for Ux, Initial residual = 0.0134421, Final residual = 9.44999e-06, No Iterations 16
smoothSolver:  Solving for Uy, Initial residual = 0.00439331, Final residual = 7.58432e-06, No Iterations 13
GAMG:  Solving for p, Initial residual = 0.00373683, Final residual = 0.000352584, No Iterations 7
time step continuity errors : sum local = 1.29216e-09, global = 3.40753e-11, cumulative = 8.85679e-07
GAMG:  Solving for p, Initial residual = 0.00338419, Final residual = 0.000132933, No Iterations 8
time step continuity errors : sum local = 4.19295e-10, global = -4.76869e-12, cumulative = 8.85674e-07
GAMG:  Solving for p, Initial residual = 0.000785208, Final residual = 3.56291e-05, No Iterations 8
time step continuity errors : sum local = 1.25706e-10, global = -5.02121e-12, cumulative = 8.85669e-07
GAMG:  Solving for p, Initial residual = 0.000267116, Final residual = 2.27347e-05, No Iterations 6
time step continuity errors : sum local = 8.1284e-11, global = -1.36706e-11, cumulative = 8.85655e-07
GAMG:  Solving for p, Initial residual = 0.000124075, Final residual = 4.2102e-07, No Iterations 10
time step continuity errors : sum local = 1.50975e-12, global = -9.86017e-14, cumulative = 8.85655e-07
ExecutionTime = 0.42 s  ClockTime = 0 s

Time = 0.058

Courant Number mean: 0.00473352 max: 0.00740695
smoothSolver:  Solving for Ux, Initial residual = 0.0134441, Final residual = 9.45185e-06, No Iterations 16
smoothSolver:  Solving for Uy, Initial residual = 0.00440924, Final residual = 7.61223e-06, No Iterations 13
GAMG:  Solving for p, Initial residual = 0.00373339, Final residual = 0.000206391, No Iterations 8
time step continuity errors : sum local = 7.38985e-10, global = 3.76634e-11, cumulative = 8.85693e-07
GAMG:  Solving for p, Initial residual = 0.00327884, Final residual = 0.000143615, No Iterations 8
time step continuity errors : sum local = 4.42306e-10, global = -1.94423e-11, cumulative = 8.85673e-07
GAMG:  Solving for p, Initial residual = 0.000767085, Final residual = 2.60399e-05, No Iterations 8
time step continuity errors : sum local = 8.98156e-11, global = -2.50424e-12, cumulative = 8.85671e-07
GAMG:  Solving for p, Initial residual = 0.000251788, Final residual = 2.31004e-05, No Iterations 6
time step continuity errors : sum local = 8.06908e-11, global = -1.193e-11, cumulative = 8.85659e-07
GAMG:  Solving for p, Initial residual = 0.000122711, Final residual = 4.24342e-07, No Iterations 10
time step continuity errors : sum local = 1.48664e-12, global = -9.8063e-14, cumulative = 8.85659e-07
ExecutionTime = 0.42 s  ClockTime = 0 s

Time = 0.059

Courant Number mean: 0.00463133 max: 0.00724708
smoothSolver:  Solving for Ux, Initial residual = 0.0134461, Final residual = 9.45367e-06, No Iterations 16
smoothSolver:  Solving for Uy, Initial residual = 0.00442309, Final residual = 7.63632e-06, No Iterations 13
GAMG:  Solving for p, Initial residual = 0.00373651, Final residual = 0.000351458, No Iterations 7
time step continuity errors : sum local = 1.22949e-09, global = 3.03068e-11, cumulative = 8.85689e-07
GAMG:  Solving for p, Initial residual = 0.00337237, Final residual = 0.000135011, No Iterations 8
time step continuity errors : sum local = 4.06567e-10, global = -1.28233e-11, cumulative = 8.85676e-07
GAMG:  Solving for p, Initial residual = 0.000792431, Final residual = 3.60482e-05, No Iterations 8
time step continuity errors : sum local = 1.21407e-10, global = -3.8357e-12, cumulative = 8.85673e-07
GAMG:  Solving for p, Initial residual = 0.000268462, Final residual = 2.25107e-05, No Iterations 6
time step continuity errors : sum local = 7.683e-11, global = -1.30703e-11, cumulative = 8.8566e-07
GAMG:  Solving for p, Initial residual = 0.000124015, Final residual = 4.19113e-07, No Iterations 10
time step continuity errors : sum local = 1.43465e-12, global = -9.37847e-14, cumulative = 8.85659e-07
ExecutionTime = 0.43 s  ClockTime = 0 s

Time = 0.06

Courant Number mean: 0.00453133 max: 0.00709063
smoothSolver:  Solving for Ux, Initial residual = 0.0134481, Final residual = 9.45548e-06, No Iterations 16
[...]
smoothSolver:  Solving for Ux, Initial residual = 0.0135427, Final residual = 9.53968e-06, No Iterations 16
smoothSolver:  Solving for Uy, Initial residual = 0.00489314, Final residual = 7.47994e-06, No Iterations 13
GAMG:  Solving for p, Initial residual = 0.00652086, Final residual = 0.00116524, No Iterations 1000
time step continuity errors : sum local = 6.90818e-18, global = -2.04021e-18, cumulative = 8.8798e-07
GAMG:  Solving for p, Initial residual = 0.00514636, Final residual = 0.00173467, No Iterations 1000
time step continuity errors : sum local = 7.79243e-18, global = -1.61656e-18, cumulative = 8.8798e-07
GAMG:  Solving for p, Initial residual = 0.00229665, Final residual = 0.00130313, No Iterations 1000
time step continuity errors : sum local = 7.10804e-18, global = -2.23836e-18, cumulative = 8.8798e-07
GAMG:  Solving for p, Initial residual = 0.00142494, Final residual = 0.00137772, No Iterations 1000
time step continuity errors : sum local = 7.16244e-18, global = -1.60531e-18, cumulative = 8.8798e-07
GAMG:  Solving for p, Initial residual = 0.00145336, Final residual = 0.00127258, No Iterations 1000
time step continuity errors : sum local = 7.20879e-18, global = -2.0396e-18, cumulative = 8.8798e-07
ExecutionTime = 80.18 s  ClockTime = 80 s

Time = 0.987

Courant Number mean: 6.38966e-12 max: 9.99928e-12
smoothSolver:  Solving for Ux, Initial residual = 0.0135424, Final residual = 9.53954e-06, No Iterations 16
smoothSolver:  Solving for Uy, Initial residual = 0.00495919, Final residual = 7.64464e-06, No Iterations 13
GAMG:  Solving for p, Initial residual = 0.00574087, Final residual = 0.00107829, No Iterations 1000
time step continuity errors : sum local = 6.79993e-18, global = -1.6506e-18, cumulative = 8.8798e-07
GAMG:  Solving for p, Initial residual = 0.00495681, Final residual = 0.00155827, No Iterations 1000
time step continuity errors : sum local = 7.13926e-18, global = -1.50877e-18, cumulative = 8.8798e-07
GAMG:  Solving for p, Initial residual = 0.00190675, Final residual = 0.00131093, No Iterations 1000
time step continuity errors : sum local = 7.0821e-18, global = -1.62531e-18, cumulative = 8.8798e-07
GAMG:  Solving for p, Initial residual = 0.00144392, Final residual = 0.00127253, No Iterations 1000
time step continuity errors : sum local = 7.13466e-18, global = -1.90555e-18, cumulative = 8.8798e-07
GAMG:  Solving for p, Initial residual = 0.00135214, Final residual = 0.00136287, No Iterations 1000
time step continuity errors : sum local = 7.02205e-18, global = -1.61995e-18, cumulative = 8.8798e-07
ExecutionTime = 80.64 s  ClockTime = 81 s

Time = 0.988

Courant Number mean: 6.25067e-12 max: 9.78176e-12
smoothSolver:  Solving for Ux, Initial residual = 0.0135443, Final residual = 9.54073e-06, No Iterations 16
smoothSolver:  Solving for Uy, Initial residual = 0.00520802, Final residual = 8.17646e-06, No Iterations 13
GAMG:  Solving for p, Initial residual = 0.0057948, Final residual = 0.00124148, No Iterations 1000
time step continuity errors : sum local = 6.77891e-18, global = -1.86963e-18, cumulative = 8.8798e-07
GAMG:  Solving for p, Initial residual = 0.00474206, Final residual = 0.00177553, No Iterations 1000
time step continuity errors : sum local = 8.39611e-18, global = -1.84558e-18, cumulative = 8.8798e-07
GAMG:  Solving for p, Initial residual = 0.00216295, Final residual = 0.00131978, No Iterations 1000
time step continuity errors : sum local = 7.43767e-18, global = -2.11463e-18, cumulative = 8.8798e-07
GAMG:  Solving for p, Initial residual = 0.00151526, Final residual = 0.00134318, No Iterations 1000
time step continuity errors : sum local = 7.50317e-18, global = -1.73438e-18, cumulative = 8.8798e-07
GAMG:  Solving for p, Initial residual = 0.00143647, Final residual = 0.00136372, No Iterations 1000
time step continuity errors : sum local = 6.85937e-18, global = -1.70688e-18, cumulative = 8.8798e-07
ExecutionTime = 81.08 s  ClockTime = 81 s

Time = 0.989

Courant Number mean: 6.1147e-12 max: 9.56899e-12
smoothSolver:  Solving for Ux, Initial residual = 0.0135416, Final residual = 9.53903e-06, No Iterations 16
smoothSolver:  Solving for Uy, Initial residual = 0.00513195, Final residual = 8.31742e-06, No Iterations 13
GAMG:  Solving for p, Initial residual = 0.00579844, Final residual = 0.00131566, No Iterations 1000
time step continuity errors : sum local = 7.22201e-18, global = -1.82341e-18, cumulative = 8.8798e-07
GAMG:  Solving for p, Initial residual = 0.00528753, Final residual = 0.00155091, No Iterations 1000
time step continuity errors : sum local = 7.3122e-18, global = -1.43933e-18, cumulative = 8.8798e-07
GAMG:  Solving for p, Initial residual = 0.00183678, Final residual = 0.00125507, No Iterations 1000
time step continuity errors : sum local = 7.16102e-18, global = -1.52623e-18, cumulative = 8.8798e-07
GAMG:  Solving for p, Initial residual = 0.00140538, Final residual = 0.00129981, No Iterations 1000
time step continuity errors : sum local = 6.83488e-18, global = -1.63713e-18, cumulative = 8.8798e-07
GAMG:  Solving for p, Initial residual = 0.00145963, Final residual = 0.00140407, No Iterations 1000
time step continuity errors : sum local = 7.18067e-18, global = -1.65059e-18, cumulative = 8.8798e-07
ExecutionTime = 81.55 s  ClockTime = 82 s

Time = 0.99

Courant Number mean: 5.9817e-12 max: 9.36084e-12
smoothSolver:  Solving for Ux, Initial residual = 0.0135418, Final residual = 9.53914e-06, No Iterations 16
smoothSolver:  Solving for Uy, Initial residual = 0.00479761, Final residual = 7.70656e-06, No Iterations 13
GAMG:  Solving for p, Initial residual = 0.00577887, Final residual = 0.00136077, No Iterations 1000
time step continuity errors : sum local = 7.34705e-18, global = -1.22251e-18, cumulative = 8.8798e-07
GAMG:  Solving for p, Initial residual = 0.00476731, Final residual = 0.00164098, No Iterations 1000
time step continuity errors : sum local = 7.55672e-18, global = -1.88264e-18, cumulative = 8.8798e-07
GAMG:  Solving for p, Initial residual = 0.00191142, Final residual = 0.00141636, No Iterations 1000
time step continuity errors : sum local = 6.74347e-18, global = -1.32084e-18, cumulative = 8.8798e-07
GAMG:  Solving for p, Initial residual = 0.00160245, Final residual = 0.00162723, No Iterations 1000
time step continuity errors : sum local = 7.85409e-18, global = -2.55618e-18, cumulative = 8.8798e-07
GAMG:  Solving for p, Initial residual = 0.00190585, Final residual = 0.00135658, No Iterations 1000
time step continuity errors : sum local = 6.95897e-18, global = -1.14888e-18, cumulative = 8.8798e-07
ExecutionTime = 82 s  ClockTime = 82 s

Time = 0.991

Courant Number mean: 5.85158e-12 max: 9.15722e-12
smoothSolver:  Solving for Ux, Initial residual = 0.0135365, Final residual = 9.53587e-06, No Iterations 16
smoothSolver:  Solving for Uy, Initial residual = 0.00498087, Final residual = 7.73961e-06, No Iterations 13
GAMG:  Solving for p, Initial residual = 0.0064945, Final residual = 0.00149549, No Iterations 1000
time step continuity errors : sum local = 7.50963e-18, global = -1.20331e-18, cumulative = 8.8798e-07
GAMG:  Solving for p, Initial residual = 0.00590625, Final residual = 0.00166889, No Iterations 1000
time step continuity errors : sum local = 7.14195e-18, global = -1.26479e-18, cumulative = 8.8798e-07
GAMG:  Solving for p, Initial residual = 0.00188144, Final residual = 0.00147775, No Iterations 1000
time step continuity errors : sum local = 7.71961e-18, global = -1.70959e-18, cumulative = 8.8798e-07
GAMG:  Solving for p, Initial residual = 0.00164556, Final residual = 0.0014154, No Iterations 1000
time step continuity errors : sum local = 6.88208e-18, global = -1.52642e-18, cumulative = 8.8798e-07
GAMG:  Solving for p, Initial residual = 0.00149744, Final residual = 0.0013671, No Iterations 1000
time step continuity errors : sum local = 6.50558e-18, global = -1.46011e-18, cumulative = 8.8798e-07
ExecutionTime = 82.43 s  ClockTime = 82 s

Time = 0.992

Courant Number mean: 5.7243e-12 max: 8.95803e-12
smoothSolver:  Solving for Ux, Initial residual = 0.0135449, Final residual = 9.54114e-06, No Iterations 16
smoothSolver:  Solving for Uy, Initial residual = 0.0049703, Final residual = 7.75759e-06, No Iterations 13
GAMG:  Solving for p, Initial residual = 0.0055946, Final residual = 0.00148538, No Iterations 1000
time step continuity errors : sum local = 7.23367e-18, global = -1.59599e-18, cumulative = 8.8798e-07
GAMG:  Solving for p, Initial residual = 0.00480064, Final residual = 0.0018007, No Iterations 1000
time step continuity errors : sum local = 7.6331e-18, global = -1.9456e-18, cumulative = 8.8798e-07
GAMG:  Solving for p, Initial residual = 0.00221518, Final residual = 0.00143788, No Iterations 1000
time step continuity errors : sum local = 7.10227e-18, global = -1.55257e-18, cumulative = 8.8798e-07
GAMG:  Solving for p, Initial residual = 0.00161121, Final residual = 0.00138848, No Iterations 1000
time step continuity errors : sum local = 7.1209e-18, global = -1.65707e-18, cumulative = 8.8798e-07
GAMG:  Solving for p, Initial residual = 0.00150763, Final residual = 0.0014786, No Iterations 1000
time step continuity errors : sum local = 7.47451e-18, global = -1.99462e-18, cumulative = 8.8798e-07
ExecutionTime = 82.91 s  ClockTime = 83 s

Time = 0.993

Courant Number mean: 5.59978e-12 max: 8.76317e-12
smoothSolver:  Solving for Ux, Initial residual = 0.013543, Final residual = 9.53995e-06, No Iterations 16
smoothSolver:  Solving for Uy, Initial residual = 0.00508121, Final residual = 7.92101e-06, No Iterations 13
GAMG:  Solving for p, Initial residual = 0.00673592, Final residual = 0.00139221, No Iterations 1000
time step continuity errors : sum local = 7.20573e-18, global = -1.17529e-18, cumulative = 8.8798e-07
GAMG:  Solving for p, Initial residual = 0.00538617, Final residual = 0.00154207, No Iterations 1000
time step continuity errors : sum local = 6.9147e-18, global = -1.50805e-18, cumulative = 8.8798e-07
GAMG:  Solving for p, Initial residual = 0.00196999, Final residual = 0.00241345, No Iterations 1000
time step continuity errors : sum local = 1.00458e-17, global = -2.54819e-18, cumulative = 8.8798e-07
GAMG:  Solving for p, Initial residual = 0.00262452, Final residual = 0.001433, No Iterations 1000
time step continuity errors : sum local = 6.66216e-18, global = -1.31629e-18, cumulative = 8.8798e-07
GAMG:  Solving for p, Initial residual = 0.00160776, Final residual = 0.00190189, No Iterations 1000
time step continuity errors : sum local = 8.48625e-18, global = -1.83376e-18, cumulative = 8.8798e-07
ExecutionTime = 83.38 s  ClockTime = 83 s

Time = 0.994

Courant Number mean: 5.47797e-12 max: 8.57255e-12
smoothSolver:  Solving for Ux, Initial residual = 0.013547, Final residual = 9.54243e-06, No Iterations 16
smoothSolver:  Solving for Uy, Initial residual = 0.00498351, Final residual = 7.60253e-06, No Iterations 13
GAMG:  Solving for p, Initial residual = 0.00631181, Final residual = 0.00141274, No Iterations 1000
time step continuity errors : sum local = 6.79984e-18, global = -1.47786e-18, cumulative = 8.8798e-07
GAMG:  Solving for p, Initial residual = 0.00496972, Final residual = 0.00170964, No Iterations 1000
time step continuity errors : sum local = 6.88137e-18, global = -1.22135e-18, cumulative = 8.8798e-07
GAMG:  Solving for p, Initial residual = 0.00203336, Final residual = 0.00143734, No Iterations 1000
time step continuity errors : sum local = 7.10298e-18, global = -1.54592e-18, cumulative = 8.8798e-07
GAMG:  Solving for p, Initial residual = 0.00157034, Final residual = 0.00158072, No Iterations 1000
time step continuity errors : sum local = 7.68345e-18, global = -1.91492e-18, cumulative = 8.8798e-07
GAMG:  Solving for p, Initial residual = 0.00171488, Final residual = 0.00161528, No Iterations 1000
time step continuity errors : sum local = 7.30572e-18, global = -1.1081e-18, cumulative = 8.8798e-07
ExecutionTime = 83.85 s  ClockTime = 84 s

Time = 0.995

Courant Number mean: 5.35882e-12 max: 8.38608e-12
smoothSolver:  Solving for Ux, Initial residual = 0.0135412, Final residual = 9.53871e-06, No Iterations 16
smoothSolver:  Solving for Uy, Initial residual = 0.00536536, Final residual = 8.46897e-06, No Iterations 13
GAMG:  Solving for p, Initial residual = 0.00765309, Final residual = 0.00158687, No Iterations 1000
time step continuity errors : sum local = 7.3377e-18, global = -1.62199e-18, cumulative = 8.8798e-07
GAMG:  Solving for p, Initial residual = 0.0063529, Final residual = 0.00167524, No Iterations 1000
time step continuity errors : sum local = 7.13076e-18, global = -1.60982e-18, cumulative = 8.8798e-07
GAMG:  Solving for p, Initial residual = 0.00204974, Final residual = 0.00160112, No Iterations 1000
time step continuity errors : sum local = 7.13195e-18, global = -9.61124e-19, cumulative = 8.8798e-07
GAMG:  Solving for p, Initial residual = 0.00173287, Final residual = 0.00151762, No Iterations 1000
time step continuity errors : sum local = 7.0926e-18, global = -1.76317e-18, cumulative = 8.8798e-07
GAMG:  Solving for p, Initial residual = 0.00174233, Final residual = 0.00159722, No Iterations 1000
time step continuity errors : sum local = 7.38575e-18, global = -1.45441e-18, cumulative = 8.8798e-07
ExecutionTime = 84.37 s  ClockTime = 84 s

Time = 0.996

Courant Number mean: 5.24225e-12 max: 8.20366e-12
smoothSolver:  Solving for Ux, Initial residual = 0.0135409, Final residual = 9.5386e-06, No Iterations 16
smoothSolver:  Solving for Uy, Initial residual = 0.00495024, Final residual = 7.55282e-06, No Iterations 13
GAMG:  Solving for p, Initial residual = 0.00699115, Final residual = 0.00144519, No Iterations 1000
time step continuity errors : sum local = 7.45028e-18, global = -1.47487e-18, cumulative = 8.8798e-07
GAMG:  Solving for p, Initial residual = 0.00575532, Final residual = 0.00190951, No Iterations 1000
time step continuity errors : sum local = 7.30525e-18, global = -2.08772e-18, cumulative = 8.8798e-07
GAMG:  Solving for p, Initial residual = 0.00225878, Final residual = 0.0020342, No Iterations 1000
time step continuity errors : sum local = 7.89113e-18, global = -8.9485e-19, cumulative = 8.8798e-07
GAMG:  Solving for p, Initial residual = 0.00238117, Final residual = 0.001616, No Iterations 1000
time step continuity errors : sum local = 7.18829e-18, global = -1.48752e-18, cumulative = 8.8798e-07
GAMG:  Solving for p, Initial residual = 0.00174508, Final residual = 0.00157699, No Iterations 1000
time step continuity errors : sum local = 7.31464e-18, global = -1.49576e-18, cumulative = 8.8798e-07
ExecutionTime = 84.85 s  ClockTime = 85 s

Time = 0.997

Courant Number mean: 5.12821e-12 max: 8.02521e-12
smoothSolver:  Solving for Ux, Initial residual = 0.0135467, Final residual = 9.54224e-06, No Iterations 16
smoothSolver:  Solving for Uy, Initial residual = 0.00492668, Final residual = 7.19194e-06, No Iterations 13
GAMG:  Solving for p, Initial residual = 0.00574944, Final residual = 0.00163039, No Iterations 1000
time step continuity errors : sum local = 7.1769e-18, global = -1.85461e-18, cumulative = 8.8798e-07
GAMG:  Solving for p, Initial residual = 0.00506833, Final residual = 0.00188484, No Iterations 1000
time step continuity errors : sum local = 7.44575e-18, global = -1.69256e-18, cumulative = 8.8798e-07
GAMG:  Solving for p, Initial residual = 0.00204491, Final residual = 0.00164235, No Iterations 1000
time step continuity errors : sum local = 6.4839e-18, global = -1.34674e-18, cumulative = 8.8798e-07
GAMG:  Solving for p, Initial residual = 0.00184796, Final residual = 0.00152347, No Iterations 1000
time step continuity errors : sum local = 6.83597e-18, global = -1.50251e-18, cumulative = 8.8798e-07
GAMG:  Solving for p, Initial residual = 0.00166583, Final residual = 0.00149115, No Iterations 1000
time step continuity errors : sum local = 6.72901e-18, global = -1.64331e-18, cumulative = 8.8798e-07
ExecutionTime = 85.33 s  ClockTime = 85 s

Time = 0.998

Courant Number mean: 5.01666e-12 max: 7.85065e-12
smoothSolver:  Solving for Ux, Initial residual = 0.0135461, Final residual = 9.54184e-06, No Iterations 16
smoothSolver:  Solving for Uy, Initial residual = 0.00546709, Final residual = 8.54772e-06, No Iterations 13
GAMG:  Solving for p, Initial residual = 0.00611263, Final residual = 0.00160964, No Iterations 1000
time step continuity errors : sum local = 7.53494e-18, global = -2.13132e-18, cumulative = 8.8798e-07
GAMG:  Solving for p, Initial residual = 0.0053491, Final residual = 0.0019098, No Iterations 1000
time step continuity errors : sum local = 7.38383e-18, global = -1.95833e-18, cumulative = 8.8798e-07
GAMG:  Solving for p, Initial residual = 0.0023251, Final residual = 0.00184595, No Iterations 1000
time step continuity errors : sum local = 7.55674e-18, global = -2.39251e-18, cumulative = 8.8798e-07
GAMG:  Solving for p, Initial residual = 0.00196734, Final residual = 0.0016887, No Iterations 1000
time step continuity errors : sum local = 6.98929e-18, global = -1.45667e-18, cumulative = 8.8798e-07
GAMG:  Solving for p, Initial residual = 0.00191021, Final residual = 0.00159823, No Iterations 1000
time step continuity errors : sum local = 7.05492e-18, global = -1.709e-18, cumulative = 8.8798e-07
ExecutionTime = 85.92 s  ClockTime = 86 s

Time = 0.999

Courant Number mean: 4.90754e-12 max: 7.67988e-12
smoothSolver:  Solving for Ux, Initial residual = 0.013547, Final residual = 9.54235e-06, No Iterations 16
smoothSolver:  Solving for Uy, Initial residual = 0.00539207, Final residual = 8.41618e-06, No Iterations 13
GAMG:  Solving for p, Initial residual = 0.00669225, Final residual = 0.00177968, No Iterations 1000
time step continuity errors : sum local = 7.23768e-18, global = -1.15579e-18, cumulative = 8.8798e-07
GAMG:  Solving for p, Initial residual = 0.00577852, Final residual = 0.00206746, No Iterations 1000
time step continuity errors : sum local = 7.77525e-18, global = -1.82093e-18, cumulative = 8.8798e-07
GAMG:  Solving for p, Initial residual = 0.00249071, Final residual = 0.00182917, No Iterations 1000
time step continuity errors : sum local = 7.59431e-18, global = -8.92129e-19, cumulative = 8.8798e-07
GAMG:  Solving for p, Initial residual = 0.00213078, Final residual = 0.00167548, No Iterations 1000
time step continuity errors : sum local = 7.14156e-18, global = -1.14067e-18, cumulative = 8.8798e-07
GAMG:  Solving for p, Initial residual = 0.00185157, Final residual = 0.00163324, No Iterations 1000
time step continuity errors : sum local = 6.67532e-18, global = -1.84757e-18, cumulative = 8.8798e-07
ExecutionTime = 86.43 s  ClockTime = 86 s

Time = 1

Courant Number mean: 4.80078e-12 max: 7.51283e-12
smoothSolver:  Solving for Ux, Initial residual = 0.0135473, Final residual = 9.54254e-06, No Iterations 16
smoothSolver:  Solving for Uy, Initial residual = 0.00516912, Final residual = 8.09809e-06, No Iterations 13
GAMG:  Solving for p, Initial residual = 0.00619697, Final residual = 0.00169214, No Iterations 1000
time step continuity errors : sum local = 7.33728e-18, global = -1.88233e-18, cumulative = 8.8798e-07
GAMG:  Solving for p, Initial residual = 0.0053243, Final residual = 0.00181348, No Iterations 1000
time step continuity errors : sum local = 6.59282e-18, global = -1.76885e-18, cumulative = 8.8798e-07
GAMG:  Solving for p, Initial residual = 0.0020512, Final residual = 0.00199644, No Iterations 1000
time step continuity errors : sum local = 8.19451e-18, global = -1.99563e-18, cumulative = 8.8798e-07
GAMG:  Solving for p, Initial residual = 0.00222057, Final residual = 0.00176304, No Iterations 1000
time step continuity errors : sum local = 7.50936e-18, global = -1.30373e-18, cumulative = 8.8798e-07
GAMG:  Solving for p, Initial residual = 0.00196665, Final residual = 0.00169137, No Iterations 1000
time step continuity errors : sum local = 7.73931e-18, global = -2.13871e-18, cumulative = 8.8798e-07
ExecutionTime = 86.88 s  ClockTime = 87 s

End

Finalising parallel run
