/*---------------------------------------------------------------------------*\
| =========                 |                                                 |
| \\      /  F ield         | OpenFOAM: The Open Source CFD Toolbox           |
|  \\    /   O peration     | Version:  5.0                                   |
|   \\  /    A nd           | Web:      www.OpenFOAM.org                      |
|    \\/     M anipulation  |                                                 |
\*---------------------------------------------------------------------------*/
Build  : 5.0-dbb428a3a855
Exec   : AnonNewtonianIcoFoam -parallel
Date   : Oct 24 2017
Time   : 15:54:49
Host   : "hermes-N552VW"
PID    : 5674
I/O    : uncollated
Case   : /home/hermes/Desktop/gitDPD/DPDCFD/poiseuilleflow
nProcs : 2
Slaves : 1("hermes-N552VW.5675")
Pstream initialized with:
    floatTransfer      : 0
    nProcsSimpleSum    : 0
    commsType          : nonBlocking
    polling iterations : 0
sigFpe : Enabling floating point exception trapping (FOAM_SIGFPE).
fileModificationChecking : Monitoring run-time modified files using timeStampMaster (fileModificationSkew 10)
allowSystemOperations : Allowing user-supplied system call operations

// * * * * * * * * * * * * * * * * * * * * * * * * * * * * * * * * * * * * * //
Create time

Create mesh, no clear-out for time = 0


PISO: Operating solver in PISO mode

Reading field p

Reading field U

Hey! I am faking the viscosity 

Reading/calculating face flux field phi

Selecting incompressible transport model CrossPowerLaw

Starting time loop

Time = 0.01

Courant Number mean: 0.1 max: 0.1
smoothSolver:  Solving for Ux, Initial residual = 1, Final residual = 8.52463e-06, No Iterations 57
smoothSolver:  Solving for Uy, Initial residual = 0.999877, Final residual = 8.45159e-06, No Iterations 39
GAMG:  Solving for p, Initial residual = 1, Final residual = 0.0938813, No Iterations 4
time step continuity errors : sum local = 0.00112725, global = -0.000689411, cumulative = -0.000689411
GAMG:  Solving for p, Initial residual = 0.211446, Final residual = 0.0202208, No Iterations 5
time step continuity errors : sum local = 0.000805613, global = -0.000125811, cumulative = -0.000815222
GAMG:  Solving for p, Initial residual = 0.587362, Final residual = 0.0525481, No Iterations 5
time step continuity errors : sum local = 0.000229463, global = -3.52923e-05, cumulative = -0.000850514
GAMG:  Solving for p, Initial residual = 0.209267, Final residual = 0.0199086, No Iterations 3
time step continuity errors : sum local = 0.000121244, global = -6.9746e-06, cumulative = -0.000857489
GAMG:  Solving for p, Initial residual = 0.251769, Final residual = 5.1221e-07, No Iterations 15
time step continuity errors : sum local = 1.81313e-09, global = -2.29663e-10, cumulative = -0.000857489
ExecutionTime = 0.02 s  ClockTime = 0 s

Time = 0.02

Courant Number mean: 0.103458 max: 0.141111
smoothSolver:  Solving for Ux, Initial residual = 0.843916, Final residual = 8.6373e-06, No Iterations 47
smoothSolver:  Solving for Uy, Initial residual = 0.191878, Final residual = 9.10383e-06, No Iterations 38
GAMG:  Solving for p, Initial residual = 0.93917, Final residual = 0.048823, No Iterations 5
time step continuity errors : sum local = 0.000238513, global = -3.11931e-05, cumulative = -0.000888682
GAMG:  Solving for p, Initial residual = 0.222606, Final residual = 0.0167727, No Iterations 4
time step continuity errors : sum local = 0.000127913, global = -1.05091e-05, cumulative = -0.000899191
GAMG:  Solving for p, Initial residual = 0.236747, Final residual = 0.0141591, No Iterations 5
time step continuity errors : sum local = 6.54518e-05, global = 1.10331e-05, cumulative = -0.000888158
GAMG:  Solving for p, Initial residual = 0.208518, Final residual = 0.0117703, No Iterations 5
time step continuity errors : sum local = 3.45246e-05, global = 4.17422e-06, cumulative = -0.000883984
GAMG:  Solving for p, Initial residual = 0.204729, Final residual = 2.93808e-07, No Iterations 17
time step continuity errors : sum local = 5.30872e-10, global = 3.03763e-11, cumulative = -0.000883984
ExecutionTime = 0.02 s  ClockTime = 0 s

Time = 0.03

Courant Number mean: 0.103061 max: 0.124456
smoothSolver:  Solving for Ux, Initial residual = 0.65452, Final residual = 9.77791e-06, No Iterations 51
smoothSolver:  Solving for Uy, Initial residual = 0.212718, Final residual = 9.59426e-06, No Iterations 40
GAMG:  Solving for p, Initial residual = 0.974514, Final residual = 0.0762486, No Iterations 4
time step continuity errors : sum local = 0.000187908, global = -1.85181e-05, cumulative = -0.000902502
GAMG:  Solving for p, Initial residual = 0.128061, Final residual = 0.0101041, No Iterations 4
time step continuity errors : sum local = 4.69627e-05, global = 2.87483e-06, cumulative = -0.000899627
GAMG:  Solving for p, Initial residual = 0.2204, Final residual = 0.0180112, No Iterations 4
time step continuity errors : sum local = 4.36167e-05, global = 2.86012e-06, cumulative = -0.000896767
GAMG:  Solving for p, Initial residual = 0.262904, Final residual = 0.0149313, No Iterations 5
time step continuity errors : sum local = 1.92499e-05, global = -3.92129e-06, cumulative = -0.000900689
GAMG:  Solving for p, Initial residual = 0.248361, Final residual = 4.12298e-07, No Iterations 19
time step continuity errors : sum local = 3.46827e-10, global = -1.84738e-11, cumulative = -0.000900689
ExecutionTime = 0.03 s  ClockTime = 0 s

Time = 0.04

Courant Number mean: 0.10166 max: 0.111407
smoothSolver:  Solving for Ux, Initial residual = 0.754255, Final residual = 9.18093e-06, No Iterations 54
smoothSolver:  Solving for Uy, Initial residual = 0.219613, Final residual = 7.80213e-06, No Iterations 38
GAMG:  Solving for p, Initial residual = 1, Final residual = 0.0786357, No Iterations 4
time step continuity errors : sum local = 0.000107568, global = 1.19737e-05, cumulative = -0.000888715
GAMG:  Solving for p, Initial residual = 0.148487, Final residual = 0.0095387, No Iterations 3
time step continuity errors : sum local = 1.70161e-05, global = 1.60326e-06, cumulative = -0.000887112
GAMG:  Solving for p, Initial residual = 0.240527, Final residual = 0.0125785, No Iterations 5
time step continuity errors : sum local = 1.40281e-05, global = 3.07531e-07, cumulative = -0.000886804
GAMG:  Solving for p, Initial residual = 0.259918, Final residual = 0.0148421, No Iterations 5
time step continuity errors : sum local = 1.03666e-05, global = 1.69083e-06, cumulative = -0.000885113
GAMG:  Solving for p, Initial residual = 0.259749, Final residual = 2.54364e-07, No Iterations 17
time step continuity errors : sum local = 1.14866e-10, global = 3.74595e-12, cumulative = -0.000885113
ExecutionTime = 0.03 s  ClockTime = 0 s

Time = 0.05

Courant Number mean: 0.101428 max: 0.106638
smoothSolver:  Solving for Ux, Initial residual = 0.678131, Final residual = 9.14101e-06, No Iterations 55
smoothSolver:  Solving for Uy, Initial residual = 0.240035, Final residual = 8.81339e-06, No Iterations 40
GAMG:  Solving for p, Initial residual = 0.989171, Final residual = 0.0902402, No Iterations 4
time step continuity errors : sum local = 7.20478e-05, global = -7.86873e-06, cumulative = -0.000892982
GAMG:  Solving for p, Initial residual = 0.149738, Final residual = 0.00714294, No Iterations 4
time step continuity errors : sum local = 6.62846e-06, global = 1.54375e-06, cumulative = -0.000891438
GAMG:  Solving for p, Initial residual = 0.221033, Final residual = 0.0170121, No Iterations 5
time step continuity errors : sum local = 1.17973e-05, global = -1.04012e-06, cumulative = -0.000892478
GAMG:  Solving for p, Initial residual = 0.24741, Final residual = 0.0139185, No Iterations 5
time step continuity errors : sum local = 5.90507e-06, global = -6.40315e-07, cumulative = -0.000893119
GAMG:  Solving for p, Initial residual = 0.253307, Final residual = 6.483e-07, No Iterations 18
time step continuity errors : sum local = 1.71926e-10, global = 1.44583e-11, cumulative = -0.000893119
ExecutionTime = 0.04 s  ClockTime = 0 s

Time = 0.06

Courant Number mean: 0.100931 max: 0.103733
smoothSolver:  Solving for Ux, Initial residual = 0.736213, Final residual = 8.62687e-06, No Iterations 58
smoothSolver:  Solving for Uy, Initial residual = 0.288306, Final residual = 7.80364e-06, No Iterations 39
GAMG:  Solving for p, Initial residual = 0.964365, Final residual = 0.0416017, No Iterations 5
time step continuity errors : sum local = 1.97649e-05, global = -2.67318e-07, cumulative = -0.000893386
GAMG:  Solving for p, Initial residual = 0.15874, Final residual = 0.0121519, No Iterations 3
time step continuity errors : sum local = 7.98014e-06, global = -4.32192e-07, cumulative = -0.000893818
GAMG:  Solving for p, Initial residual = 0.182116, Final residual = 0.0107287, No Iterations 5
time step continuity errors : sum local = 5.07261e-06, global = 8.05101e-08, cumulative = -0.000893738
GAMG:  Solving for p, Initial residual = 0.217216, Final residual = 0.0127358, No Iterations 5
time step continuity errors : sum local = 3.4766e-06, global = -1.52721e-09, cumulative = -0.000893739
GAMG:  Solving for p, Initial residual = 0.238176, Final residual = 4.37192e-07, No Iterations 17
time step continuity errors : sum local = 6.99514e-11, global = 7.19547e-13, cumulative = -0.000893739
ExecutionTime = 0.04 s  ClockTime = 0 s

Time = 0.07

Courant Number mean: 0.100924 max: 0.102315
smoothSolver:  Solving for Ux, Initial residual = 0.685221, Final residual = 9.30419e-06, No Iterations 57
smoothSolver:  Solving for Uy, Initial residual = 0.275356, Final residual = 8.07778e-06, No Iterations 40
GAMG:  Solving for p, Initial residual = 0.974307, Final residual = 0.0474831, No Iterations 5
time step continuity errors : sum local = 1.26024e-05, global = 3.94442e-08, cumulative = -0.0008937
GAMG:  Solving for p, Initial residual = 0.149026, Final residual = 0.0099343, No Iterations 3
time step continuity errors : sum local = 4.14419e-06, global = 5.84047e-07, cumulative = -0.000893116
GAMG:  Solving for p, Initial residual = 0.161082, Final residual = 0.0122416, No Iterations 5
time step continuity errors : sum local = 3.67929e-06, global = -3.06633e-07, cumulative = -0.000893422
GAMG:  Solving for p, Initial residual = 0.200257, Final residual = 0.0119852, No Iterations 5
time step continuity errors : sum local = 2.01208e-06, global = -1.14391e-08, cumulative = -0.000893434
GAMG:  Solving for p, Initial residual = 0.201116, Final residual = 8.25852e-07, No Iterations 19
time step continuity errors : sum local = 8.51778e-11, global = -1.14791e-12, cumulative = -0.000893434
ExecutionTime = 0.05 s  ClockTime = 0 s

Time = 0.08

Courant Number mean: 0.100784 max: 0.101535
smoothSolver:  Solving for Ux, Initial residual = 0.699433, Final residual = 9.38312e-06, No Iterations 58
smoothSolver:  Solving for Uy, Initial residual = 0.328632, Final residual = 8.01029e-06, No Iterations 39
GAMG:  Solving for p, Initial residual = 0.928968, Final residual = 0.0769626, No Iterations 4
time step continuity errors : sum local = 1.2055e-05, global = 2.07088e-06, cumulative = -0.000891363
GAMG:  Solving for p, Initial residual = 0.127964, Final residual = 0.0102399, No Iterations 3
time step continuity errors : sum local = 2.44049e-06, global = -1.59678e-07, cumulative = -0.000891522
GAMG:  Solving for p, Initial residual = 0.155584, Final residual = 0.0119791, No Iterations 5
time step continuity errors : sum local = 2.17564e-06, global = 1.68399e-07, cumulative = -0.000891354
GAMG:  Solving for p, Initial residual = 0.18384, Final residual = 0.0126583, No Iterations 5
time step continuity errors : sum local = 1.28785e-06, global = 1.39726e-07, cumulative = -0.000891214
GAMG:  Solving for p, Initial residual = 0.202844, Final residual = 4.31344e-07, No Iterations 18
time step continuity errors : sum local = 2.60367e-11, global = -7.82642e-13, cumulative = -0.000891214
ExecutionTime = 0.05 s  ClockTime = 0 s

Time = 0.09

Courant Number mean: 0.100796 max: 0.101185
smoothSolver:  Solving for Ux, Initial residual = 0.670833, Final residual = 9.48946e-06, No Iterations 58
smoothSolver:  Solving for Uy, Initial residual = 0.328878, Final residual = 9.72539e-06, No Iterations 39
GAMG:  Solving for p, Initial residual = 0.923099, Final residual = 0.0893185, No Iterations 4
time step continuity errors : sum local = 8.04775e-06, global = -6.61442e-07, cumulative = -0.000891876
GAMG:  Solving for p, Initial residual = 0.0967733, Final residual = 0.00909721, No Iterations 4
time step continuity errors : sum local = 1.62777e-06, global = 2.85841e-07, cumulative = -0.00089159
GAMG:  Solving for p, Initial residual = 0.150508, Final residual = 0.012727, No Iterations 5
time step continuity errors : sum local = 1.44645e-06, global = -1.11114e-07, cumulative = -0.000891701
GAMG:  Solving for p, Initial residual = 0.176711, Final residual = 0.0140028, No Iterations 5
time step continuity errors : sum local = 8.63984e-07, global = -4.98585e-08, cumulative = -0.000891751
GAMG:  Solving for p, Initial residual = 0.193017, Final residual = 6.84109e-07, No Iterations 19
time step continuity errors : sum local = 2.52586e-11, global = -1.10724e-13, cumulative = -0.000891751
ExecutionTime = 0.06 s  ClockTime = 0 s

Time = 0.1

Courant Number mean: 0.100756 max: 0.100968
smoothSolver:  Solving for Ux, Initial residual = 0.671478, Final residual = 9.10228e-06, No Iterations 58
smoothSolver:  Solving for Uy, Initial residual = 0.393914, Final residual = 8.40012e-06, No Iterations 39
GAMG:  Solving for p, Initial residual = 0.900269, Final residual = 0.078156, No Iterations 4
time step continuity errors : sum local = 4.21953e-06, global = 5.20098e-07, cumulative = -0.000891231
GAMG:  Solving for p, Initial residual = 0.105663, Final residual = 0.0100941, No Iterations 4
time step continuity errors : sum local = 1.04241e-06, global = -1.88221e-07, cumulative = -0.000891419
GAMG:  Solving for p, Initial residual = 0.146834, Final residual = 0.0109164, No Iterations 5
time step continuity errors : sum local = 7.26678e-07, global = 2.61322e-08, cumulative = -0.000891393
GAMG:  Solving for p, Initial residual = 0.177405, Final residual = 0.00955075, No Iterations 5
time step continuity errors : sum local = 3.37554e-07, global = -6.31053e-10, cumulative = -0.000891394
GAMG:  Solving for p, Initial residual = 0.185191, Final residual = 9.60624e-07, No Iterations 20
time step continuity errors : sum local = 2.05718e-11, global = -1.28034e-12, cumulative = -0.000891394
ExecutionTime = 0.06 s  ClockTime = 0 s

Time = 0.11

Courant Number mean: 0.100761 max: 0.100872
smoothSolver:  Solving for Ux, Initial residual = 0.659558, Final residual = 8.75769e-06, No Iterations 58
smoothSolver:  Solving for Uy, Initial residual = 0.385323, Final residual = 9.77472e-06, No Iterations 39
GAMG:  Solving for p, Initial residual = 0.920513, Final residual = 0.0792612, No Iterations 4
time step continuity errors : sum local = 2.36395e-06, global = -1.62383e-07, cumulative = -0.000891556
GAMG:  Solving for p, Initial residual = 0.110969, Final residual = 0.00858534, No Iterations 4
time step continuity errors : sum local = 4.94995e-07, global = 1.08276e-07, cumulative = -0.000891448
GAMG:  Solving for p, Initial residual = 0.145281, Final residual = 0.0127677, No Iterations 5
time step continuity errors : sum local = 4.96205e-07, global = -4.47335e-08, cumulative = -0.000891492
GAMG:  Solving for p, Initial residual = 0.166684, Final residual = 0.0113498, No Iterations 5
time step continuity errors : sum local = 2.40948e-07, global = -7.99763e-09, cumulative = -0.0008915
GAMG:  Solving for p, Initial residual = 0.184477, Final residual = 8.59581e-07, No Iterations 18
time step continuity errors : sum local = 1.05497e-11, global = 3.03113e-13, cumulative = -0.0008915
ExecutionTime = 0.07 s  ClockTime = 0 s

Time = 0.12

Courant Number mean: 0.10075 max: 0.100808
smoothSolver:  Solving for Ux, Initial residual = 0.689903, Final residual = 9.58257e-06, No Iterations 58
smoothSolver:  Solving for Uy, Initial residual = 0.449603, Final residual = 8.55049e-06, No Iterations 39
GAMG:  Solving for p, Initial residual = 0.894891, Final residual = 0.0737728, No Iterations 4
time step continuity errors : sum local = 1.30773e-06, global = 1.10265e-07, cumulative = -0.00089139
GAMG:  Solving for p, Initial residual = 0.111237, Final residual = 0.00944839, No Iterations 4
time step continuity errors : sum local = 3.37046e-07, global = -3.51074e-08, cumulative = -0.000891425
GAMG:  Solving for p, Initial residual = 0.145651, Final residual = 0.0103984, No Iterations 5
time step continuity errors : sum local = 2.31904e-07, global = 5.25907e-09, cumulative = -0.00089142
GAMG:  Solving for p, Initial residual = 0.170893, Final residual = 0.0120434, No Iterations 5
time step continuity errors : sum local = 1.41871e-07, global = 1.16452e-08, cumulative = -0.000891408
GAMG:  Solving for p, Initial residual = 0.18319, Final residual = 8.91901e-07, No Iterations 20
time step continuity errors : sum local = 6.20282e-12, global = -3.02517e-13, cumulative = -0.000891408
ExecutionTime = 0.07 s  ClockTime = 0 s

Time = 0.13

Courant Number mean: 0.100752 max: 0.100784
smoothSolver:  Solving for Ux, Initial residual = 0.660008, Final residual = 8.63963e-06, No Iterations 58
smoothSolver:  Solving for Uy, Initial residual = 0.430881, Final residual = 9.71949e-06, No Iterations 39
GAMG:  Solving for p, Initial residual = 0.909326, Final residual = 0.0767485, No Iterations 4
time step continuity errors : sum local = 7.58085e-07, global = -6.78446e-08, cumulative = -0.000891476
GAMG:  Solving for p, Initial residual = 0.108626, Final residual = 0.00952571, No Iterations 4
time step continuity errors : sum local = 1.99547e-07, global = 2.67466e-08, cumulative = -0.000891449
GAMG:  Solving for p, Initial residual = 0.145475, Final residual = 0.0103357, No Iterations 5
time step continuity errors : sum local = 1.32226e-07, global = -3.67319e-09, cumulative = -0.000891453
GAMG:  Solving for p, Initial residual = 0.170346, Final residual = 0.0121833, No Iterations 5
time step continuity errors : sum local = 8.15758e-08, global = -8.18626e-09, cumulative = -0.000891461
GAMG:  Solving for p, Initial residual = 0.182863, Final residual = 6.40595e-07, No Iterations 20
time step continuity errors : sum local = 2.53323e-12, global = 1.05513e-13, cumulative = -0.000891461
ExecutionTime = 0.08 s  ClockTime = 1 s

Time = 0.14

Courant Number mean: 0.100749 max: 0.100765
smoothSolver:  Solving for Ux, Initial residual = 0.674418, Final residual = 9.15298e-06, No Iterations 58
smoothSolver:  Solving for Uy, Initial residual = 0.492605, Final residual = 8.76972e-06, No Iterations 39
GAMG:  Solving for p, Initial residual = 0.899058, Final residual = 0.0720938, No Iterations 4
time step continuity errors : sum local = 4.05483e-07, global = 3.80715e-08, cumulative = -0.000891423
GAMG:  Solving for p, Initial residual = 0.113362, Final residual = 0.00932637, No Iterations 4
time step continuity errors : sum local = 1.05893e-07, global = -1.45086e-08, cumulative = -0.000891438
GAMG:  Solving for p, Initial residual = 0.145459, Final residual = 0.0101634, No Iterations 5
time step continuity errors : sum local = 7.21353e-08, global = 2.23131e-09, cumulative = -0.000891435
GAMG:  Solving for p, Initial residual = 0.169605, Final residual = 0.0116816, No Iterations 5
time step continuity errors : sum local = 4.37604e-08, global = 2.21244e-09, cumulative = -0.000891433
GAMG:  Solving for p, Initial residual = 0.183566, Final residual = 8.58099e-07, No Iterations 19
time step continuity errors : sum local = 1.8857e-12, global = 4.46487e-15, cumulative = -0.000891433
ExecutionTime = 0.08 s  ClockTime = 1 s

Time = 0.15

Courant Number mean: 0.10075 max: 0.100759
smoothSolver:  Solving for Ux, Initial residual = 0.662146, Final residual = 8.68577e-06, No Iterations 58
smoothSolver:  Solving for Uy, Initial residual = 0.46555, Final residual = 9.84402e-06, No Iterations 39
GAMG:  Solving for p, Initial residual = 0.908666, Final residual = 0.0781812, No Iterations 4
time step continuity errors : sum local = 2.43841e-07, global = -2.02265e-08, cumulative = -0.000891453
GAMG:  Solving for p, Initial residual = 0.107352, Final residual = 0.00965088, No Iterations 4
time step continuity errors : sum local = 6.43983e-08, global = 7.64456e-09, cumulative = -0.000891446
GAMG:  Solving for p, Initial residual = 0.145956, Final residual = 0.0108504, No Iterations 5
time step continuity errors : sum local = 4.41117e-08, global = -9.73457e-10, cumulative = -0.000891447
GAMG:  Solving for p, Initial residual = 0.168938, Final residual = 0.0127543, No Iterations 5
time step continuity errors : sum local = 2.71042e-08, global = -1.55017e-09, cumulative = -0.000891448
GAMG:  Solving for p, Initial residual = 0.184074, Final residual = 5.72009e-07, No Iterations 20
time step continuity errors : sum local = 7.09983e-13, global = 2.96458e-14, cumulative = -0.000891448
ExecutionTime = 0.09 s  ClockTime = 1 s

Time = 0.16

Courant Number mean: 0.100749 max: 0.100753
smoothSolver:  Solving for Ux, Initial residual = 0.671773, Final residual = 9.0302e-06, No Iterations 58
smoothSolver:  Solving for Uy, Initial residual = 0.53405, Final residual = 9.00638e-06, No Iterations 39
GAMG:  Solving for p, Initial residual = 0.903754, Final residual = 0.0693934, No Iterations 4
time step continuity errors : sum local = 1.2186e-07, global = 1.13572e-08, cumulative = -0.000891437
GAMG:  Solving for p, Initial residual = 0.12558, Final residual = 0.00825466, No Iterations 4
time step continuity errors : sum local = 2.85757e-08, global = -3.19241e-09, cumulative = -0.00089144
GAMG:  Solving for p, Initial residual = 0.143393, Final residual = 0.0110017, No Iterations 5
time step continuity errors : sum local = 2.44356e-08, global = 7.56011e-10, cumulative = -0.000891439
GAMG:  Solving for p, Initial residual = 0.167211, Final residual = 0.0129682, No Iterations 5
time step continuity errors : sum local = 1.54489e-08, global = 1.20492e-09, cumulative = -0.000891438
GAMG:  Solving for p, Initial residual = 0.18361, Final residual = 4.40031e-07, No Iterations 21
time step continuity errors : sum local = 3.03971e-13, global = 1.21423e-15, cumulative = -0.000891438
ExecutionTime = 0.1 s  ClockTime = 1 s

Time = 0.17

Courant Number mean: 0.100749 max: 0.100752
smoothSolver:  Solving for Ux, Initial residual = 0.661224, Final residual = 8.75006e-06, No Iterations 58
smoothSolver:  Solving for Uy, Initial residual = 0.497546, Final residual = 9.7314e-06, No Iterations 39
GAMG:  Solving for p, Initial residual = 0.913367, Final residual = 0.0748766, No Iterations 4
time step continuity errors : sum local = 7.32576e-08, global = -6.51416e-09, cumulative = -0.000891445
GAMG:  Solving for p, Initial residual = 0.111191, Final residual = 0.00931557, No Iterations 4
time step continuity errors : sum local = 1.90953e-08, global = 2.56379e-09, cumulative = -0.000891442
GAMG:  Solving for p, Initial residual = 0.145828, Final residual = 0.0101569, No Iterations 5
time step continuity errors : sum local = 1.28183e-08, global = -3.44407e-10, cumulative = -0.000891443
GAMG:  Solving for p, Initial residual = 0.169131, Final residual = 0.0123017, No Iterations 5
time step continuity errors : sum local = 8.16749e-09, global = -5.02079e-10, cumulative = -0.000891443
GAMG:  Solving for p, Initial residual = 0.183592, Final residual = 9.62277e-07, No Iterations 19
time step continuity errors : sum local = 3.75574e-13, global = -1.74044e-15, cumulative = -0.000891443
ExecutionTime = 0.1 s  ClockTime = 1 s

Time = 0.18

Courant Number mean: 0.100749 max: 0.10075
smoothSolver:  Solving for Ux, Initial residual = 0.676628, Final residual = 9.24415e-06, No Iterations 58
smoothSolver:  Solving for Uy, Initial residual = 0.561038, Final residual = 8.85852e-06, No Iterations 39
GAMG:  Solving for p, Initial residual = 0.901524, Final residual = 0.0709322, No Iterations 4
time step continuity errors : sum local = 3.94647e-08, global = 3.45094e-09, cumulative = -0.00089144
GAMG:  Solving for p, Initial residual = 0.114723, Final residual = 0.00917807, No Iterations 4
time step continuity errors : sum local = 1.02429e-08, global = -1.48141e-09, cumulative = -0.000891441
GAMG:  Solving for p, Initial residual = 0.146146, Final residual = 0.0100535, No Iterations 5
time step continuity errors : sum local = 7.06018e-09, global = 2.02685e-10, cumulative = -0.000891441
GAMG:  Solving for p, Initial residual = 0.168597, Final residual = 0.013079, No Iterations 5
time step continuity errors : sum local = 4.86633e-09, global = 3.52524e-10, cumulative = -0.000891441
GAMG:  Solving for p, Initial residual = 0.182552, Final residual = 9.82059e-07, No Iterations 19
time step continuity errors : sum local = 2.1468e-13, global = 6.65029e-16, cumulative = -0.000891441
ExecutionTime = 0.1 s  ClockTime = 1 s

Time = 0.19

Courant Number mean: 0.100749 max: 0.10075
smoothSolver:  Solving for Ux, Initial residual = 0.663003, Final residual = 8.61354e-06, No Iterations 58
smoothSolver:  Solving for Uy, Initial residual = 0.529201, Final residual = 9.64647e-06, No Iterations 39
GAMG:  Solving for p, Initial residual = 0.910502, Final residual = 0.0747422, No Iterations 4
time step continuity errors : sum local = 2.26809e-08, global = -1.99657e-09, cumulative = -0.000891443
GAMG:  Solving for p, Initial residual = 0.120109, Final residual = 0.00893543, No Iterations 4
time step continuity errors : sum local = 5.69738e-09, global = 6.18504e-10, cumulative = -0.000891442
GAMG:  Solving for p, Initial residual = 0.142413, Final residual = 0.0104725, No Iterations 5
time step continuity errors : sum local = 4.18959e-09, global = -9.51812e-11, cumulative = -0.000891442
GAMG:  Solving for p, Initial residual = 0.168063, Final residual = 0.0122374, No Iterations 5
time step continuity errors : sum local = 2.57652e-09, global = -1.02555e-10, cumulative = -0.000891442
GAMG:  Solving for p, Initial residual = 0.182173, Final residual = 3.37726e-07, No Iterations 21
time step continuity errors : sum local = 4.13793e-14, global = -3.24082e-17, cumulative = -0.000891442
ExecutionTime = 0.11 s  ClockTime = 1 s

Time = 0.2

Courant Number mean: 0.100749 max: 0.10075
smoothSolver:  Solving for Ux, Initial residual = 0.681458, Final residual = 9.292e-06, No Iterations 58
smoothSolver:  Solving for Uy, Initial residual = 0.585923, Final residual = 8.84024e-06, No Iterations 39
GAMG:  Solving for p, Initial residual = 0.905721, Final residual = 0.064478, No Iterations 4
time step continuity errors : sum local = 1.12618e-08, global = 1.73619e-10, cumulative = -0.000891442
GAMG:  Solving for p, Initial residual = 0.129163, Final residual = 0.0076295, No Iterations 4
time step continuity errors : sum local = 2.59496e-09, global = -3.91094e-10, cumulative = -0.000891442
GAMG:  Solving for p, Initial residual = 0.144068, Final residual = 0.0104228, No Iterations 5
time step continuity errors : sum local = 2.26875e-09, global = 5.03188e-11, cumulative = -0.000891442
GAMG:  Solving for p, Initial residual = 0.167459, Final residual = 0.0125422, No Iterations 5
time step continuity errors : sum local = 1.46429e-09, global = 1.75654e-10, cumulative = -0.000891442
GAMG:  Solving for p, Initial residual = 0.18247, Final residual = 8.42307e-07, No Iterations 20
time step continuity errors : sum local = 5.74925e-14, global = -2.30743e-15, cumulative = -0.000891442
ExecutionTime = 0.12 s  ClockTime = 1 s

Time = 0.21

Courant Number mean: 0.100749 max: 0.10075
smoothSolver:  Solving for Ux, Initial residual = 0.66364, Final residual = 8.76877e-06, No Iterations 58
smoothSolver:  Solving for Uy, Initial residual = 0.549219, Final residual = 9.7081e-06, No Iterations 39
GAMG:  Solving for p, Initial residual = 0.910135, Final residual = 0.07554, No Iterations 4
time step continuity errors : sum local = 7.11556e-09, global = -6.83501e-10, cumulative = -0.000891443
GAMG:  Solving for p, Initial residual = 0.120385, Final residual = 0.00898016, No Iterations 4
time step continuity errors : sum local = 1.77716e-09, global = 3.50668e-10, cumulative = -0.000891442
GAMG:  Solving for p, Initial residual = 0.141254, Final residual = 0.0111798, No Iterations 5
time step continuity errors : sum local = 1.38991e-09, global = -4.1123e-11, cumulative = -0.000891442
GAMG:  Solving for p, Initial residual = 0.167308, Final residual = 0.0122926, No Iterations 5
time step continuity errors : sum local = 8.07386e-10, global = 3.40587e-11, cumulative = -0.000891442
GAMG:  Solving for p, Initial residual = 0.185847, Final residual = 8.34044e-07, No Iterations 18
time step continuity errors : sum local = 3.16399e-14, global = 8.62958e-16, cumulative = -0.000891442
ExecutionTime = 0.12 s  ClockTime = 1 s

Time = 0.22

Courant Number mean: 0.100749 max: 0.100749
smoothSolver:  Solving for Ux, Initial residual = 0.686108, Final residual = 9.44242e-06, No Iterations 58
smoothSolver:  Solving for Uy, Initial residual = 0.601568, Final residual = 8.75482e-06, No Iterations 39
GAMG:  Solving for p, Initial residual = 0.902524, Final residual = 0.0723008, No Iterations 4
time step continuity errors : sum local = 3.94834e-09, global = 2.57215e-10, cumulative = -0.000891442
GAMG:  Solving for p, Initial residual = 0.112744, Final residual = 0.00904388, No Iterations 4
time step continuity errors : sum local = 9.68598e-10, global = -1.28171e-10, cumulative = -0.000891442
GAMG:  Solving for p, Initial residual = 0.148846, Final residual = 0.0126753, No Iterations 5
time step continuity errors : sum local = 8.64937e-10, global = 4.00844e-11, cumulative = -0.000891442
GAMG:  Solving for p, Initial residual = 0.165816, Final residual = 0.0105875, No Iterations 5
time step continuity errors : sum local = 3.87763e-10, global = 7.18344e-12, cumulative = -0.000891442
GAMG:  Solving for p, Initial residual = 0.185893, Final residual = 6.90553e-07, No Iterations 18
time step continuity errors : sum local = 1.4468e-14, global = -2.50812e-16, cumulative = -0.000891442
ExecutionTime = 0.13 s  ClockTime = 1 s

Time = 0.23

Courant Number mean: 0.100749 max: 0.100749
smoothSolver:  Solving for Ux, Initial residual = 0.665285, Final residual = 8.85411e-06, No Iterations 58
smoothSolver:  Solving for Uy, Initial residual = 0.562401, Final residual = 9.44115e-06, No Iterations 39
GAMG:  Solving for p, Initial residual = 0.907503, Final residual = 0.0797369, No Iterations 4
time step continuity errors : sum local = 2.3997e-09, global = -1.77639e-10, cumulative = -0.000891442
GAMG:  Solving for p, Initial residual = 0.104803, Final residual = 0.0101845, No Iterations 4
time step continuity errors : sum local = 6.61416e-10, global = 5.5345e-11, cumulative = -0.000891442
GAMG:  Solving for p, Initial residual = 0.147444, Final residual = 0.0120199, No Iterations 5
time step continuity errors : sum local = 4.73853e-10, global = -1.52153e-11, cumulative = -0.000891442
GAMG:  Solving for p, Initial residual = 0.167682, Final residual = 0.0104911, No Iterations 5
time step continuity errors : sum local = 2.15578e-10, global = -4.06891e-12, cumulative = -0.000891442
GAMG:  Solving for p, Initial residual = 0.185814, Final residual = 7.04574e-07, No Iterations 18
time step continuity errors : sum local = 8.30302e-15, global = 2.56741e-16, cumulative = -0.000891442
ExecutionTime = 0.13 s  ClockTime = 1 s

Time = 0.24

Courant Number mean: 0.100749 max: 0.100749
smoothSolver:  Solving for Ux, Initial residual = 0.672324, Final residual = 9.15425e-06, No Iterations 58
smoothSolver:  Solving for Uy, Initial residual = 0.623859, Final residual = 9.08375e-06, No Iterations 39
GAMG:  Solving for p, Initial residual = 0.900196, Final residual = 0.0732167, No Iterations 4
time step continuity errors : sum local = 1.25383e-09, global = 9.57702e-11, cumulative = -0.000891442
GAMG:  Solving for p, Initial residual = 0.109903, Final residual = 0.00949535, No Iterations 4
time step continuity errors : sum local = 3.28066e-10, global = -4.45788e-11, cumulative = -0.000891442
GAMG:  Solving for p, Initial residual = 0.148932, Final residual = 0.0116176, No Iterations 5
time step continuity errors : sum local = 2.50411e-10, global = 8.43571e-12, cumulative = -0.000891442
GAMG:  Solving for p, Initial residual = 0.167356, Final residual = 0.0123946, No Iterations 5
time step continuity errors : sum local = 1.41728e-10, global = -5.93651e-12, cumulative = -0.000891442
GAMG:  Solving for p, Initial residual = 0.18835, Final residual = 7.68296e-07, No Iterations 18
time step continuity errors : sum local = 5.02531e-15, global = -1.65072e-16, cumulative = -0.000891442
ExecutionTime = 0.14 s  ClockTime = 1 s

Time = 0.25

Courant Number mean: 0.100749 max: 0.100749
smoothSolver:  Solving for Ux, Initial residual = 0.669702, Final residual = 8.62411e-06, No Iterations 58
smoothSolver:  Solving for Uy, Initial residual = 0.589086, Final residual = 9.50263e-06, No Iterations 39
GAMG:  Solving for p, Initial residual = 0.912892, Final residual = 0.0788515, No Iterations 4
time step continuity errors : sum local = 7.40239e-10, global = -4.8891e-11, cumulative = -0.000891442
GAMG:  Solving for p, Initial residual = 0.107064, Final residual = 0.00976425, No Iterations 4
time step continuity errors : sum local = 1.93623e-10, global = 2.64332e-11, cumulative = -0.000891442
GAMG:  Solving for p, Initial residual = 0.148239, Final residual = 0.0117167, No Iterations 5
time step continuity errors : sum local = 1.43584e-10, global = -1.56892e-12, cumulative = -0.000891442
GAMG:  Solving for p, Initial residual = 0.166871, Final residual = 0.0124187, No Iterations 5
time step continuity errors : sum local = 8.03901e-11, global = 8.67135e-13, cumulative = -0.000891442
GAMG:  Solving for p, Initial residual = 0.186234, Final residual = 5.94553e-07, No Iterations 19
time step continuity errors : sum local = 2.2097e-15, global = 1.08659e-17, cumulative = -0.000891442
ExecutionTime = 0.14 s  ClockTime = 1 s

Time = 0.26

Courant Number mean: 0.100749 max: 0.100749
smoothSolver:  Solving for Ux, Initial residual = 0.671086, Final residual = 9.11013e-06, No Iterations 58
smoothSolver:  Solving for Uy, Initial residual = 0.65058, Final residual = 8.9891e-06, No Iterations 39
GAMG:  Solving for p, Initial residual = 0.90541, Final residual = 0.0670006, No Iterations 4
time step continuity errors : sum local = 3.58232e-10, global = 2.25614e-11, cumulative = -0.000891442
GAMG:  Solving for p, Initial residual = 0.116303, Final residual = 0.00822095, No Iterations 4
time step continuity errors : sum local = 8.46651e-11, global = -5.10778e-12, cumulative = -0.000891442
GAMG:  Solving for p, Initial residual = 0.146562, Final residual = 0.0117579, No Iterations 5
time step continuity errors : sum local = 7.8977e-11, global = 5.81095e-12, cumulative = -0.000891442
GAMG:  Solving for p, Initial residual = 0.163336, Final residual = 0.0120093, No Iterations 5
time step continuity errors : sum local = 4.35472e-11, global = 2.1477e-12, cumulative = -0.000891442
GAMG:  Solving for p, Initial residual = 0.183267, Final residual = 3.04805e-07, No Iterations 19
time step continuity errors : sum local = 6.4239e-16, global = 4.81873e-18, cumulative = -0.000891442
ExecutionTime = 0.15 s  ClockTime = 1 s

Time = 0.27

Courant Number mean: 0.100749 max: 0.100749
smoothSolver:  Solving for Ux, Initial residual = 0.667962, Final residual = 8.87017e-06, No Iterations 58
smoothSolver:  Solving for Uy, Initial residual = 0.613326, Final residual = 9.75717e-06, No Iterations 39
GAMG:  Solving for p, Initial residual = 0.912073, Final residual = 0.0749565, No Iterations 4
time step continuity errors : sum local = 2.21484e-10, global = -1.80842e-11, cumulative = -0.000891442
GAMG:  Solving for p, Initial residual = 0.111029, Final residual = 0.00947896, No Iterations 4
time step continuity errors : sum local = 5.96928e-11, global = 1.14319e-11, cumulative = -0.000891442
GAMG:  Solving for p, Initial residual = 0.145067, Final residual = 0.0107678, No Iterations 5
time step continuity errors : sum local = 4.15615e-11, global = -1.06841e-12, cumulative = -0.000891442
GAMG:  Solving for p, Initial residual = 0.165752, Final residual = 0.0109913, No Iterations 5
time step continuity errors : sum local = 2.22893e-11, global = -4.63999e-13, cumulative = -0.000891442
GAMG:  Solving for p, Initial residual = 0.181628, Final residual = 3.69203e-07, No Iterations 19
time step continuity errors : sum local = 4.36876e-16, global = 3.06792e-17, cumulative = -0.000891442
ExecutionTime = 0.15 s  ClockTime = 1 s

Time = 0.28

Courant Number mean: 0.100749 max: 0.100749
smoothSolver:  Solving for Ux, Initial residual = 0.677783, Final residual = 9.35378e-06, No Iterations 58
smoothSolver:  Solving for Uy, Initial residual = 0.660676, Final residual = 8.89934e-06, No Iterations 39
GAMG:  Solving for p, Initial residual = 0.897609, Final residual = 0.0707125, No Iterations 4
time step continuity errors : sum local = 1.19274e-10, global = 8.95957e-12, cumulative = -0.000891442
GAMG:  Solving for p, Initial residual = 0.113953, Final residual = 0.00911178, No Iterations 4
time step continuity errors : sum local = 3.11913e-11, global = -3.02435e-12, cumulative = -0.000891442
GAMG:  Solving for p, Initial residual = 0.14639, Final residual = 0.0143079, No Iterations 4
time step continuity errors : sum local = 3.06308e-11, global = -2.0758e-12, cumulative = -0.000891442
GAMG:  Solving for p, Initial residual = 0.18113, Final residual = 0.0108553, No Iterations 5
time step continuity errors : sum local = 1.27595e-11, global = 2.64784e-13, cumulative = -0.000891442
GAMG:  Solving for p, Initial residual = 0.183929, Final residual = 4.89356e-07, No Iterations 19
time step continuity errors : sum local = 3.16259e-16, global = 2.33516e-17, cumulative = -0.000891442
ExecutionTime = 0.16 s  ClockTime = 1 s

Time = 0.29

Courant Number mean: 0.100749 max: 0.100749
smoothSolver:  Solving for Ux, Initial residual = 0.668863, Final residual = 8.41314e-06, No Iterations 58
smoothSolver:  Solving for Uy, Initial residual = 0.621496, Final residual = 9.87351e-06, No Iterations 39
GAMG:  Solving for p, Initial residual = 0.911894, Final residual = 0.0786136, No Iterations 4
time step continuity errors : sum local = 7.06953e-11, global = -5.24607e-12, cumulative = -0.000891442
GAMG:  Solving for p, Initial residual = 0.109194, Final residual = 0.00972421, No Iterations 4
time step continuity errors : sum local = 1.8977e-11, global = 1.4423e-12, cumulative = -0.000891442
GAMG:  Solving for p, Initial residual = 0.14618, Final residual = 0.0108497, No Iterations 5
time step continuity errors : sum local = 1.2883e-11, global = -2.8981e-13, cumulative = -0.000891442
GAMG:  Solving for p, Initial residual = 0.168372, Final residual = 0.0118044, No Iterations 5
time step continuity errors : sum local = 7.3025e-12, global = -2.75657e-13, cumulative = -0.000891442
GAMG:  Solving for p, Initial residual = 0.183664, Final residual = 4.56791e-07, No Iterations 19
time step continuity errors : sum local = 1.66511e-16, global = 1.29683e-17, cumulative = -0.000891442
ExecutionTime = 0.16 s  ClockTime = 1 s

Time = 0.3

Courant Number mean: 0.100749 max: 0.100749
smoothSolver:  Solving for Ux, Initial residual = 0.677314, Final residual = 9.23335e-06, No Iterations 58
smoothSolver:  Solving for Uy, Initial residual = 0.679147, Final residual = 9.20915e-06, No Iterations 39
GAMG:  Solving for p, Initial residual = 0.9039, Final residual = 0.0690742, No Iterations 4
time step continuity errors : sum local = 3.55748e-11, global = 2.8486e-12, cumulative = -0.000891442
GAMG:  Solving for p, Initial residual = 0.117292, Final residual = 0.00876749, No Iterations 4
time step continuity errors : sum local = 8.94372e-12, global = -2.18591e-13, cumulative = -0.000891442
GAMG:  Solving for p, Initial residual = 0.145959, Final residual = 0.0101279, No Iterations 5
time step continuity errors : sum local = 6.536e-12, global = 2.01828e-13, cumulative = -0.000891442
GAMG:  Solving for p, Initial residual = 0.168457, Final residual = 0.0127134, No Iterations 5
time step continuity errors : sum local = 4.36263e-12, global = 4.21556e-13, cumulative = -0.000891442
GAMG:  Solving for p, Initial residual = 0.18482, Final residual = 8.37126e-07, No Iterations 20
time step continuity errors : sum local = 1.78893e-16, global = 1.30023e-17, cumulative = -0.000891442
ExecutionTime = 0.17 s  ClockTime = 1 s

Time = 0.31

Courant Number mean: 0.100749 max: 0.100749
smoothSolver:  Solving for Ux, Initial residual = 0.673731, Final residual = 8.62117e-06, No Iterations 58
smoothSolver:  Solving for Uy, Initial residual = 0.639177, Final residual = 7.6414e-06, No Iterations 40
GAMG:  Solving for p, Initial residual = 0.917082, Final residual = 0.0748691, No Iterations 4
time step continuity errors : sum local = 2.11423e-11, global = -1.94558e-12, cumulative = -0.000891442
GAMG:  Solving for p, Initial residual = 0.112111, Final residual = 0.00941707, No Iterations 4
time step continuity errors : sum local = 5.63572e-12, global = 7.80015e-13, cumulative = -0.000891442
GAMG:  Solving for p, Initial residual = 0.145566, Final residual = 0.0101253, No Iterations 5
time step continuity errors : sum local = 3.72848e-12, global = -1.09934e-13, cumulative = -0.000891442
GAMG:  Solving for p, Initial residual = 0.168572, Final residual = 0.0136781, No Iterations 5
time step continuity errors : sum local = 2.64301e-12, global = -1.20665e-13, cumulative = -0.000891442
GAMG:  Solving for p, Initial residual = 0.183649, Final residual = 6.23099e-07, No Iterations 21
time step continuity errors : sum local = 8.36098e-17, global = 7.06021e-18, cumulative = -0.000891442
ExecutionTime = 0.18 s  ClockTime = 1 s

Time = 0.32

Courant Number mean: 0.100749 max: 0.100749
smoothSolver:  Solving for Ux, Initial residual = 0.682891, Final residual = 9.37699e-06, No Iterations 58
smoothSolver:  Solving for Uy, Initial residual = 0.682063, Final residual = 9.2564e-06, No Iterations 39
GAMG:  Solving for p, Initial residual = 0.903488, Final residual = 0.0677233, No Iterations 4
time step continuity errors : sum local = 1.1015e-11, global = 9.48751e-13, cumulative = -0.000891442
GAMG:  Solving for p, Initial residual = 0.116796, Final residual = 0.00890975, No Iterations 4
time step continuity errors : sum local = 2.86758e-12, global = -5.4904e-13, cumulative = -0.000891442
GAMG:  Solving for p, Initial residual = 0.147935, Final residual = 0.00991174, No Iterations 5
time step continuity errors : sum local = 1.99755e-12, global = 6.47382e-14, cumulative = -0.000891442
GAMG:  Solving for p, Initial residual = 0.170024, Final residual = 0.0132944, No Iterations 5
time step continuity errors : sum local = 1.41804e-12, global = 1.56808e-13, cumulative = -0.000891442
GAMG:  Solving for p, Initial residual = 0.184635, Final residual = 9.57254e-07, No Iterations 22
time step continuity errors : sum local = 6.94849e-17, global = 1.92753e-17, cumulative = -0.000891442
ExecutionTime = 0.18 s  ClockTime = 1 s

Time = 0.33

Courant Number mean: 0.100749 max: 0.100749
smoothSolver:  Solving for Ux, Initial residual = 0.67003, Final residual = 8.63606e-06, No Iterations 58
smoothSolver:  Solving for Uy, Initial residual = 0.64051, Final residual = 7.64445e-06, No Iterations 40
GAMG:  Solving for p, Initial residual = 0.913419, Final residual = 0.0746997, No Iterations 4
time step continuity errors : sum local = 6.5514e-12, global = -6.28221e-13, cumulative = -0.000891442
GAMG:  Solving for p, Initial residual = 0.119411, Final residual = 0.00907538, No Iterations 4
time step continuity errors : sum local = 1.70794e-12, global = 3.05714e-13, cumulative = -0.000891442
GAMG:  Solving for p, Initial residual = 0.142276, Final residual = 0.0106708, No Iterations 5
time step continuity errors : sum local = 1.23637e-12, global = -3.62349e-14, cumulative = -0.000891442
GAMG:  Solving for p, Initial residual = 0.168065, Final residual = 0.0142485, No Iterations 5
time step continuity errors : sum local = 8.60835e-13, global = -1.01865e-13, cumulative = -0.000891442
GAMG:  Solving for p, Initial residual = 0.182852, Final residual = 1.70196e-06, No Iterations 1000
time step continuity errors : sum local = 6.49798e-17, global = 1.99231e-17, cumulative = -0.000891442
ExecutionTime = 0.26 s  ClockTime = 1 s

Time = 0.34

Courant Number mean: 0.100749 max: 0.100749
smoothSolver:  Solving for Ux, Initial residual = 0.681449, Final residual = 9.39816e-06, No Iterations 58
smoothSolver:  Solving for Uy, Initial residual = 0.679925, Final residual = 9.22013e-06, No Iterations 39
GAMG:  Solving for p, Initial residual = 0.901441, Final residual = 0.067811, No Iterations 4
time step continuity errors : sum local = 3.36912e-12, global = 3.15156e-13, cumulative = -0.000891442
GAMG:  Solving for p, Initial residual = 0.125484, Final residual = 0.00858925, No Iterations 4
time step continuity errors : sum local = 8.48978e-13, global = -1.11406e-13, cumulative = -0.000891442
GAMG:  Solving for p, Initial residual = 0.143756, Final residual = 0.0101156, No Iterations 5
time step continuity errors : sum local = 6.32849e-13, global = 1.87138e-14, cumulative = -0.000891442
GAMG:  Solving for p, Initial residual = 0.16981, Final residual = 0.0121253, No Iterations 5
time step continuity errors : sum local = 4.00893e-13, global = 1.88161e-14, cumulative = -0.000891442
GAMG:  Solving for p, Initial residual = 0.185266, Final residual = 3.01396e-06, No Iterations 1000
time step continuity errors : sum local = 7.77744e-17, global = 2.24892e-17, cumulative = -0.000891442
ExecutionTime = 0.34 s  ClockTime = 1 s

Time = 0.35

Courant Number mean: 0.100749 max: 0.100749
smoothSolver:  Solving for Ux, Initial residual = 0.675937, Final residual = 9.03009e-06, No Iterations 58
smoothSolver:  Solving for Uy, Initial residual = 0.641822, Final residual = 7.73524e-06, No Iterations 40
GAMG:  Solving for p, Initial residual = 0.920325, Final residual = 0.074776, No Iterations 4
time step continuity errors : sum local = 2.04162e-12, global = -1.7253e-13, cumulative = -0.000891442
GAMG:  Solving for p, Initial residual = 0.111815, Final residual = 0.00915929, No Iterations 4
time step continuity errors : sum local = 5.244e-13, global = 3.48824e-14, cumulative = -0.000891442
GAMG:  Solving for p, Initial residual = 0.145764, Final residual = 0.0120486, No Iterations 5
time step continuity errors : sum local = 4.26488e-13, global = 2.05318e-14, cumulative = -0.000891442
GAMG:  Solving for p, Initial residual = 0.171751, Final residual = 0.0111017, No Iterations 5
time step continuity errors : sum local = 2.0757e-13, global = -1.32369e-14, cumulative = -0.000891442
GAMG:  Solving for p, Initial residual = 0.182063, Final residual = 5.72264e-06, No Iterations 1000
time step continuity errors : sum local = 7.84494e-17, global = 2.64417e-17, cumulative = -0.000891442
ExecutionTime = 0.42 s  ClockTime = 1 s

Time = 0.36

Courant Number mean: 0.100749 max: 0.100749
smoothSolver:  Solving for Ux, Initial residual = 0.684595, Final residual = 9.84679e-06, No Iterations 58
smoothSolver:  Solving for Uy, Initial residual = 0.699644, Final residual = 9.50775e-06, No Iterations 39
GAMG:  Solving for p, Initial residual = 0.902037, Final residual = 0.0691467, No Iterations 4
time step continuity errors : sum local = 1.08556e-12, global = 8.79337e-14, cumulative = -0.000891442
GAMG:  Solving for p, Initial residual = 0.116519, Final residual = 0.00888896, No Iterations 4
time step continuity errors : sum local = 2.74416e-13, global = -3.77217e-14, cumulative = -0.000891442
GAMG:  Solving for p, Initial residual = 0.148026, Final residual = 0.0144344, No Iterations 4
time step continuity errors : sum local = 2.81389e-13, global = -2.1083e-14, cumulative = -0.000891442
GAMG:  Solving for p, Initial residual = 0.184391, Final residual = 0.0168132, No Iterations 4
time step continuity errors : sum local = 1.80873e-13, global = -3.91845e-15, cumulative = -0.000891442
GAMG:  Solving for p, Initial residual = 0.204303, Final residual = 1.05947e-05, No Iterations 1000
time step continuity errors : sum local = 7.96923e-17, global = 2.59863e-17, cumulative = -0.000891442
ExecutionTime = 0.51 s  ClockTime = 1 s

Time = 0.37

Courant Number mean: 0.100749 max: 0.100749
smoothSolver:  Solving for Ux, Initial residual = 0.679079, Final residual = 9.70509e-06, No Iterations 60
smoothSolver:  Solving for Uy, Initial residual = 0.646613, Final residual = 7.67991e-06, No Iterations 40
GAMG:  Solving for p, Initial residual = 0.915069, Final residual = 0.0575228, No Iterations 5
time step continuity errors : sum local = 4.63206e-13, global = 9.43465e-15, cumulative = -0.000891442
GAMG:  Solving for p, Initial residual = 0.128662, Final residual = 0.010883, No Iterations 4
time step continuity errors : sum local = 1.98442e-13, global = 4.15343e-14, cumulative = -0.000891442
GAMG:  Solving for p, Initial residual = 0.145384, Final residual = 0.0137396, No Iterations 5
time step continuity errors : sum local = 1.43087e-13, global = -2.03101e-15, cumulative = -0.000891442
GAMG:  Solving for p, Initial residual = 0.178422, Final residual = 0.0137033, No Iterations 5
time step continuity errors : sum local = 7.41984e-14, global = -7.03811e-15, cumulative = -0.000891442
GAMG:  Solving for p, Initial residual = 0.18946, Final residual = 2.07255e-05, No Iterations 1000
time step continuity errors : sum local = 7.09623e-17, global = 1.98676e-17, cumulative = -0.000891442
ExecutionTime = 0.59 s  ClockTime = 1 s

Time = 0.38

Courant Number mean: 0.100749 max: 0.100749
smoothSolver:  Solving for Ux, Initial residual = 0.665677, Final residual = 1.49975e-05, No Iterations 1000
smoothSolver:  Solving for Uy, Initial residual = 0.68833, Final residual = 9.48925e-06, No Iterations 39
GAMG:  Solving for p, Initial residual = 0.91173, Final residual = 0.066193, No Iterations 4
time step continuity errors : sum local = 2.96566e-13, global = 2.24462e-14, cumulative = -0.000891442
GAMG:  Solving for p, Initial residual = 0.121571, Final residual = 0.00815089, No Iterations 4
time step continuity errors : sum local = 6.82879e-14, global = -1.16563e-14, cumulative = -0.000891442
GAMG:  Solving for p, Initial residual = 0.148067, Final residual = 0.012367, No Iterations 5
time step continuity errors : sum local = 6.78535e-14, global = 6.62134e-15, cumulative = -0.000891442
GAMG:  Solving for p, Initial residual = 0.169969, Final residual = 0.0113016, No Iterations 5
time step continuity errors : sum local = 3.35167e-14, global = 1.27987e-15, cumulative = -0.000891442
GAMG:  Solving for p, Initial residual = 0.189886, Final residual = 3.53465e-05, No Iterations 1000
time step continuity errors : sum local = 7.69752e-17, global = 1.92288e-17, cumulative = -0.000891442
ExecutionTime = 0.68 s  ClockTime = 1 s

Time = 0.39

Courant Number mean: 0.100749 max: 0.100749
smoothSolver:  Solving for Ux, Initial residual = 0.677049, Final residual = 3.03086e-05, No Iterations 1000
smoothSolver:  Solving for Uy, Initial residual = 0.633586, Final residual = 7.7288e-06, No Iterations 40
GAMG:  Solving for p, Initial residual = 0.924121, Final residual = 0.076714, No Iterations 4
time step continuity errors : sum local = 1.90449e-13, global = -1.44923e-14, cumulative = -0.000891442
GAMG:  Solving for p, Initial residual = 0.111342, Final residual = 0.00950789, No Iterations 4
time step continuity errors : sum local = 4.9691e-14, global = 4.66569e-15, cumulative = -0.000891442
GAMG:  Solving for p, Initial residual = 0.147293, Final residual = 0.010536, No Iterations 5
time step continuity errors : sum local = 3.40413e-14, global = -6.89932e-16, cumulative = -0.000891442
GAMG:  Solving for p, Initial residual = 0.170045, Final residual = 0.0124146, No Iterations 5
time step continuity errors : sum local = 2.1194e-14, global = -1.68014e-15, cumulative = -0.000891442
GAMG:  Solving for p, Initial residual = 0.184261, Final residual = 5.98518e-05, No Iterations 1000
time step continuity errors : sum local = 6.85064e-17, global = 2.12418e-17, cumulative = -0.000891442
ExecutionTime = 0.78 s  ClockTime = 1 s

Time = 0.4

Courant Number mean: 0.100749 max: 0.100749
smoothSolver:  Solving for Ux, Initial residual = 0.680375, Final residual = 4.13853e-05, No Iterations 1000
smoothSolver:  Solving for Uy, Initial residual = 0.692946, Final residual = 9.31785e-06, No Iterations 39
GAMG:  Solving for p, Initial residual = 0.903399, Final residual = 0.0709697, No Iterations 4
time step continuity errors : sum local = 1.0235e-13, global = 1.65147e-16, cumulative = -0.000891442
GAMG:  Solving for p, Initial residual = 0.114999, Final residual = 0.0084222, No Iterations 4
time step continuity errors : sum local = 2.3543e-14, global = -4.53604e-15, cumulative = -0.000891442
GAMG:  Solving for p, Initial residual = 0.146269, Final residual = 0.0109971, No Iterations 5
time step continuity errors : sum local = 1.96536e-14, global = 8.59794e-16, cumulative = -0.000891442
GAMG:  Solving for p, Initial residual = 0.168312, Final residual = 0.0107006, No Iterations 5
time step continuity errors : sum local = 1.01876e-14, global = 3.32431e-16, cumulative = -0.000891442
GAMG:  Solving for p, Initial residual = 0.188294, Final residual = 0.000110829, No Iterations 1000
time step continuity errors : sum local = 7.3392e-17, global = 1.24461e-18, cumulative = -0.000891442
ExecutionTime = 0.88 s  ClockTime = 1 s

Time = 0.41

Courant Number mean: 0.100749 max: 0.100749
smoothSolver:  Solving for Ux, Initial residual = 0.678132, Final residual = 0.000100694, No Iterations 1000
smoothSolver:  Solving for Uy, Initial residual = 0.651819, Final residual = 7.84563e-06, No Iterations 40
GAMG:  Solving for p, Initial residual = 0.920675, Final residual = 0.0766447, No Iterations 4
time step continuity errors : sum local = 6.01438e-14, global = -4.43007e-15, cumulative = -0.000891442
GAMG:  Solving for p, Initial residual = 0.110854, Final residual = 0.00950167, No Iterations 4
time step continuity errors : sum local = 1.59686e-14, global = 1.46313e-15, cumulative = -0.000891442
GAMG:  Solving for p, Initial residual = 0.146451, Final residual = 0.0104348, No Iterations 5
time step continuity errors : sum local = 1.07986e-14, global = -1.82443e-16, cumulative = -0.000891442
GAMG:  Solving for p, Initial residual = 0.167443, Final residual = 0.0134866, No Iterations 5
time step continuity errors : sum local = 7.33332e-15, global = -6.14267e-16, cumulative = -0.000891442
GAMG:  Solving for p, Initial residual = 0.182621, Final residual = 0.000187378, No Iterations 1000
time step continuity errors : sum local = 8.51389e-17, global = 1.64755e-17, cumulative = -0.000891442
ExecutionTime = 0.98 s  ClockTime = 1 s

Time = 0.42

Courant Number mean: 0.100749 max: 0.100749
smoothSolver:  Solving for Ux, Initial residual = 0.679451, Final residual = 0.00013734, No Iterations 1000
smoothSolver:  Solving for Uy, Initial residual = 0.697965, Final residual = 9.43852e-06, No Iterations 39
GAMG:  Solving for p, Initial residual = 0.898913, Final residual = 0.067178, No Iterations 4
time step continuity errors : sum local = 3.02701e-14, global = 2.73892e-15, cumulative = -0.000891442
GAMG:  Solving for p, Initial residual = 0.126028, Final residual = 0.00851766, No Iterations 4
time step continuity errors : sum local = 7.64255e-15, global = -1.30934e-15, cumulative = -0.000891442
GAMG:  Solving for p, Initial residual = 0.145045, Final residual = 0.0101914, No Iterations 5
time step continuity errors : sum local = 5.738e-15, global = 2.04621e-16, cumulative = -0.000891442
GAMG:  Solving for p, Initial residual = 0.171278, Final residual = 0.0134396, No Iterations 5
time step continuity errors : sum local = 3.968e-15, global = 4.49293e-16, cumulative = -0.000891442
GAMG:  Solving for p, Initial residual = 0.187881, Final residual = 0.000332941, No Iterations 1000
time step continuity errors : sum local = 7.73703e-17, global = 3.52891e-17, cumulative = -0.000891442
ExecutionTime = 1.08 s  ClockTime = 2 s

Time = 0.43

Courant Number mean: 0.100749 max: 0.100749
smoothSolver:  Solving for Ux, Initial residual = 0.676045, Final residual = 0.000380699, No Iterations 1000
smoothSolver:  Solving for Uy, Initial residual = 0.653628, Final residual = 7.85611e-06, No Iterations 40
GAMG:  Solving for p, Initial residual = 0.924919, Final residual = 0.0733656, No Iterations 4
time step continuity errors : sum local = 1.76992e-14, global = -1.62791e-15, cumulative = -0.000891442
GAMG:  Solving for p, Initial residual = 0.121565, Final residual = 0.00889338, No Iterations 4
time step continuity errors : sum local = 4.54579e-15, global = 8.80716e-16, cumulative = -0.000891442
GAMG:  Solving for p, Initial residual = 0.143499, Final residual = 0.0105682, No Iterations 5
time step continuity errors : sum local = 3.35805e-15, global = -8.37078e-17, cumulative = -0.000891442
GAMG:  Solving for p, Initial residual = 0.16904, Final residual = 0.0145477, No Iterations 5
time step continuity errors : sum local = 2.42592e-15, global = -2.62943e-16, cumulative = -0.000891442
GAMG:  Solving for p, Initial residual = 0.184049, Final residual = 0.000563758, No Iterations 1000
time step continuity errors : sum local = 7.37642e-17, global = 2.35748e-17, cumulative = -0.000891442
ExecutionTime = 1.17 s  ClockTime = 2 s

Time = 0.44

Courant Number mean: 0.100749 max: 0.100749
smoothSolver:  Solving for Ux, Initial residual = 0.68689, Final residual = 0.000469076, No Iterations 1000
smoothSolver:  Solving for Uy, Initial residual = 0.694706, Final residual = 9.44253e-06, No Iterations 39
GAMG:  Solving for p, Initial residual = 0.900481, Final residual = 0.0689663, No Iterations 4
time step continuity errors : sum local = 9.50495e-15, global = 9.79378e-16, cumulative = -0.000891442
GAMG:  Solving for p, Initial residual = 0.127066, Final residual = 0.00848974, No Iterations 4
time step continuity errors : sum local = 2.28135e-15, global = -2.6705e-16, cumulative = -0.000891442
GAMG:  Solving for p, Initial residual = 0.144723, Final residual = 0.0113701, No Iterations 5
time step continuity errors : sum local = 1.94245e-15, global = 9.68104e-17, cumulative = -0.000891442
GAMG:  Solving for p, Initial residual = 0.170867, Final residual = 0.0100601, No Iterations 5
time step continuity errors : sum local = 9.12469e-16, global = 1.60884e-17, cumulative = -0.000891442
GAMG:  Solving for p, Initial residual = 0.186455, Final residual = 0.00112629, No Iterations 1000
time step continuity errors : sum local = 7.08639e-17, global = 2.7623e-17, cumulative = -0.000891442
ExecutionTime = 1.27 s  ClockTime = 2 s

Time = 0.45

Courant Number mean: 0.100749 max: 0.100749
smoothSolver:  Solving for Ux, Initial residual = 0.691736, Final residual = 0.00118703, No Iterations 1000
smoothSolver:  Solving for Uy, Initial residual = 0.652319, Final residual = 7.92539e-06, No Iterations 40
GAMG:  Solving for p, Initial residual = 0.943759, Final residual = 0.0739515, No Iterations 4
time step continuity errors : sum local = 5.37693e-15, global = 1.55324e-16, cumulative = -0.000891442
GAMG:  Solving for p, Initial residual = 0.127134, Final residual = 0.00742667, No Iterations 4
time step continuity errors : sum local = 1.01742e-15, global = 3.0902e-17, cumulative = -0.000891442
GAMG:  Solving for p, Initial residual = 0.140199, Final residual = 0.00995147, No Iterations 5
time step continuity errors : sum local = 9.42632e-16, global = 7.09511e-17, cumulative = -0.000891442
GAMG:  Solving for p, Initial residual = 0.163859, Final residual = 0.0150446, No Iterations 5
time step continuity errors : sum local = 8.1835e-16, global = -1.5355e-17, cumulative = -0.000891442
GAMG:  Solving for p, Initial residual = 0.187039, Final residual = 0.00301848, No Iterations 1000
time step continuity errors : sum local = 1.04482e-16, global = 1.54017e-17, cumulative = -0.000891442
ExecutionTime = 1.36 s  ClockTime = 2 s

Time = 0.46

Courant Number mean: 0.100749 max: 0.100749
smoothSolver:  Solving for Ux, Initial residual = 0.706174, Final residual = 0.00191844, No Iterations 1000
smoothSolver:  Solving for Uy, Initial residual = 0.705821, Final residual = 9.65343e-06, No Iterations 39
GAMG:  Solving for p, Initial residual = 0.897766, Final residual = 0.0770087, No Iterations 4
time step continuity errors : sum local = 3.31267e-15, global = 4.28344e-16, cumulative = -0.000891442
GAMG:  Solving for p, Initial residual = 0.115104, Final residual = 0.0081371, No Iterations 4
time step continuity errors : sum local = 6.74154e-16, global = -3.34174e-17, cumulative = -0.000891442
GAMG:  Solving for p, Initial residual = 0.144547, Final residual = 0.0113622, No Iterations 5
time step continuity errors : sum local = 6.11885e-16, global = 4.68965e-17, cumulative = -0.000891442
GAMG:  Solving for p, Initial residual = 0.168363, Final residual = 0.00984878, No Iterations 5
time step continuity errors : sum local = 2.93849e-16, global = 8.49486e-18, cumulative = -0.000891442
GAMG:  Solving for p, Initial residual = 0.187626, Final residual = 0.00503535, No Iterations 1000
time step continuity errors : sum local = 9.12742e-17, global = 3.65613e-17, cumulative = -0.000891442
ExecutionTime = 1.45 s  ClockTime = 2 s

Time = 0.47

Courant Number mean: 0.100749 max: 0.100749
smoothSolver:  Solving for Ux, Initial residual = 0.698549, Final residual = 0.00355983, No Iterations 1000
smoothSolver:  Solving for Uy, Initial residual = 0.671883, Final residual = 7.95429e-06, No Iterations 40
GAMG:  Solving for p, Initial residual = 0.939732, Final residual = 0.0741213, No Iterations 4
time step continuity errors : sum local = 1.7125e-15, global = -8.68457e-17, cumulative = -0.000891442
GAMG:  Solving for p, Initial residual = 0.12349, Final residual = 0.00739789, No Iterations 4
time step continuity errors : sum local = 3.24946e-16, global = 3.91631e-17, cumulative = -0.000891442
GAMG:  Solving for p, Initial residual = 0.139632, Final residual = 0.00822669, No Iterations 5
time step continuity errors : sum local = 2.52534e-16, global = 6.47631e-17, cumulative = -0.000891442
GAMG:  Solving for p, Initial residual = 0.159012, Final residual = 0.0119516, No Iterations 5
time step continuity errors : sum local = 2.20938e-16, global = 3.39229e-17, cumulative = -0.000891442
GAMG:  Solving for p, Initial residual = 0.190559, Final residual = 0.00669566, No Iterations 1000
time step continuity errors : sum local = 7.354e-17, global = 3.1915e-17, cumulative = -0.000891442
ExecutionTime = 1.53 s  ClockTime = 2 s

Time = 0.48

Courant Number mean: 0.100749 max: 0.100749
smoothSolver:  Solving for Ux, Initial residual = 0.715701, Final residual = 0.00486379, No Iterations 1000
smoothSolver:  Solving for Uy, Initial residual = 0.722385, Final residual = 9.82944e-06, No Iterations 39
GAMG:  Solving for p, Initial residual = 0.897968, Final residual = 0.0599463, No Iterations 5
time step continuity errors : sum local = 8.3021e-16, global = -4.07687e-17, cumulative = -0.000891442
GAMG:  Solving for p, Initial residual = 0.137286, Final residual = 0.0102705, No Iterations 4
time step continuity errors : sum local = 2.97937e-16, global = 1.39575e-17, cumulative = -0.000891442
GAMG:  Solving for p, Initial residual = 0.150916, Final residual = 0.00728156, No Iterations 6
time step continuity errors : sum local = 1.17304e-16, global = 2.62289e-17, cumulative = -0.000891442
GAMG:  Solving for p, Initial residual = 0.174387, Final residual = 0.0124805, No Iterations 5
time step continuity errors : sum local = 1.20381e-16, global = 4.29172e-17, cumulative = -0.000891442
GAMG:  Solving for p, Initial residual = 0.186677, Final residual = 0.0130721, No Iterations 1000
time step continuity errors : sum local = 7.55231e-17, global = 3.21756e-17, cumulative = -0.000891442
ExecutionTime = 1.62 s  ClockTime = 2 s

Time = 0.49

Courant Number mean: 0.100749 max: 0.100749
smoothSolver:  Solving for Ux, Initial residual = 0.683563, Final residual = 0.00954042, No Iterations 1000
smoothSolver:  Solving for Uy, Initial residual = 0.663006, Final residual = 8.22423e-06, No Iterations 40
GAMG:  Solving for p, Initial residual = 0.905118, Final residual = 0.0816515, No Iterations 4
time step continuity errors : sum local = 5.73679e-16, global = -2.15472e-17, cumulative = -0.000891442
GAMG:  Solving for p, Initial residual = 0.110817, Final residual = 0.00624914, No Iterations 6
time step continuity errors : sum local = 1.11636e-16, global = 1.96324e-17, cumulative = -0.000891442
GAMG:  Solving for p, Initial residual = 0.142219, Final residual = 0.0124038, No Iterations 5
time step continuity errors : sum local = 1.22457e-16, global = 2.35693e-17, cumulative = -0.000891442
GAMG:  Solving for p, Initial residual = 0.166887, Final residual = 0.0157922, No Iterations 5
time step continuity errors : sum local = 1.0393e-16, global = 3.36398e-17, cumulative = -0.000891442
GAMG:  Solving for p, Initial residual = 0.182675, Final residual = 0.0205871, No Iterations 1000
time step continuity errors : sum local = 7.1679e-17, global = 2.48083e-17, cumulative = -0.000891442
ExecutionTime = 1.71 s  ClockTime = 2 s

Time = 0.5

Courant Number mean: 0.100749 max: 0.100749
smoothSolver:  Solving for Ux, Initial residual = 0.710273, Final residual = 0.0228595, No Iterations 1000
smoothSolver:  Solving for Uy, Initial residual = 0.693148, Final residual = 9.18548e-06, No Iterations 39
GAMG:  Solving for p, Initial residual = 0.950516, Final residual = 0.0800475, No Iterations 4
time step continuity errors : sum local = 3.23367e-16, global = 2.14459e-17, cumulative = -0.000891442
GAMG:  Solving for p, Initial residual = 0.195042, Final residual = 0.0160689, No Iterations 6
time step continuity errors : sum local = 8.86693e-17, global = 2.09143e-17, cumulative = -0.000891442
GAMG:  Solving for p, Initial residual = 0.151026, Final residual = 0.0121623, No Iterations 10
time step continuity errors : sum local = 7.37988e-17, global = 2.10052e-17, cumulative = -0.000891442
GAMG:  Solving for p, Initial residual = 0.149375, Final residual = 0.0204948, No Iterations 1000
time step continuity errors : sum local = 7.69218e-17, global = 2.84837e-17, cumulative = -0.000891442
GAMG:  Solving for p, Initial residual = 0.17932, Final residual = 0.03903, No Iterations 1000
time step continuity errors : sum local = 7.81708e-17, global = 2.73006e-17, cumulative = -0.000891442
ExecutionTime = 1.85 s  ClockTime = 2 s

Time = 0.51

Courant Number mean: 0.100749 max: 0.100749
smoothSolver:  Solving for Ux, Initial residual = 0.754145, Final residual = 0.0297009, No Iterations 1000
smoothSolver:  Solving for Uy, Initial residual = 0.616948, Final residual = 9.0049e-06, No Iterations 39
GAMG:  Solving for p, Initial residual = 0.861594, Final residual = 0.0548039, No Iterations 6
time step continuity errors : sum local = 1.36928e-16, global = 2.25411e-17, cumulative = -0.000891442
GAMG:  Solving for p, Initial residual = 0.0768082, Final residual = 0.00707884, No Iterations 9
time step continuity errors : sum local = 7.61766e-17, global = 3.01582e-17, cumulative = -0.000891442
GAMG:  Solving for p, Initial residual = 0.137321, Final residual = 0.0245574, No Iterations 1000
time step continuity errors : sum local = 7.43509e-17, global = 2.77943e-17, cumulative = -0.000891442
GAMG:  Solving for p, Initial residual = 0.169629, Final residual = 0.0405743, No Iterations 1000
time step continuity errors : sum local = 8.09564e-17, global = 3.29139e-17, cumulative = -0.000891442
GAMG:  Solving for p, Initial residual = 0.193641, Final residual = 0.0712566, No Iterations 1000
time step continuity errors : sum local = 7.17654e-17, global = 3.34563e-17, cumulative = -0.000891442
ExecutionTime = 2.04 s  ClockTime = 2 s

Time = 0.52

Courant Number mean: 0.100749 max: 0.100749
smoothSolver:  Solving for Ux, Initial residual = 0.686648, Final residual = 0.0317706, No Iterations 1000
smoothSolver:  Solving for Uy, Initial residual = 0.601651, Final residual = 7.79963e-06, No Iterations 40
GAMG:  Solving for p, Initial residual = 0.848088, Final residual = 0.0818736, No Iterations 5
time step continuity errors : sum local = 1.25108e-16, global = 3.06419e-17, cumulative = -0.000891442
GAMG:  Solving for p, Initial residual = 0.0877789, Final residual = 0.0125527, No Iterations 1000
time step continuity errors : sum local = 6.7475e-17, global = 2.84231e-17, cumulative = -0.000891442
GAMG:  Solving for p, Initial residual = 0.140848, Final residual = 0.038548, No Iterations 1000
time step continuity errors : sum local = 7.5183e-17, global = 2.5294e-17, cumulative = -0.000891442
GAMG:  Solving for p, Initial residual = 0.202785, Final residual = 0.102572, No Iterations 1000
time step continuity errors : sum local = 8.06836e-17, global = 1.38221e-17, cumulative = -0.000891442
GAMG:  Solving for p, Initial residual = 0.264468, Final residual = 0.113896, No Iterations 1000
time step continuity errors : sum local = 7.20893e-17, global = 2.77063e-17, cumulative = -0.000891442
ExecutionTime = 2.29 s  ClockTime = 3 s

Time = 0.53

Courant Number mean: 0.100749 max: 0.100749
smoothSolver:  Solving for Ux, Initial residual = 0.702012, Final residual = 0.0582135, No Iterations 1000
smoothSolver:  Solving for Uy, Initial residual = 0.577352, Final residual = 9.88715e-06, No Iterations 41
GAMG:  Solving for p, Initial residual = 0.893544, Final residual = 0.0791201, No Iterations 7
time step continuity errors : sum local = 7.59997e-17, global = 1.64305e-17, cumulative = -0.000891442
GAMG:  Solving for p, Initial residual = 0.0909118, Final residual = 0.0190055, No Iterations 1000
time step continuity errors : sum local = 7.51125e-17, global = 2.48871e-17, cumulative = -0.000891442
GAMG:  Solving for p, Initial residual = 0.214488, Final residual = 0.108748, No Iterations 1000
time step continuity errors : sum local = 7.68385e-17, global = 2.01347e-17, cumulative = -0.000891442
GAMG:  Solving for p, Initial residual = 0.279318, Final residual = 0.131543, No Iterations 1000
time step continuity errors : sum local = 6.71825e-17, global = 2.37781e-17, cumulative = -0.000891442
GAMG:  Solving for p, Initial residual = 0.298769, Final residual = 0.251331, No Iterations 1000
time step continuity errors : sum local = 7.37517e-17, global = 2.85581e-17, cumulative = -0.000891442
ExecutionTime = 2.57 s  ClockTime = 3 s

Time = 0.54

Courant Number mean: 0.100749 max: 0.100749
smoothSolver:  Solving for Ux, Initial residual = 0.77374, Final residual = 0.0918775, No Iterations 1000
smoothSolver:  Solving for Uy, Initial residual = 0.673418, Final residual = 8.51681e-06, No Iterations 43
GAMG:  Solving for p, Initial residual = 0.891715, Final residual = 0.148978, No Iterations 1000
time step continuity errors : sum local = 7.32267e-17, global = 3.0359e-17, cumulative = -0.000891442
GAMG:  Solving for p, Initial residual = 0.120748, Final residual = 0.0440539, No Iterations 1000
time step continuity errors : sum local = 7.26163e-17, global = 2.41307e-17, cumulative = -0.000891442
GAMG:  Solving for p, Initial residual = 0.271666, Final residual = 0.179095, No Iterations 1000
time step continuity errors : sum local = 8.64249e-17, global = 1.56516e-17, cumulative = -0.000891442
GAMG:  Solving for p, Initial residual = 0.31459, Final residual = 0.224859, No Iterations 1000
time step continuity errors : sum local = 7.33456e-17, global = 2.95502e-17, cumulative = -0.000891442
GAMG:  Solving for p, Initial residual = 0.285793, Final residual = 0.230782, No Iterations 1000
time step continuity errors : sum local = 7.32178e-17, global = 1.17438e-17, cumulative = -0.000891442
ExecutionTime = 3.06 s  ClockTime = 3 s

Time = 0.55

Courant Number mean: 0.100749 max: 0.100749
smoothSolver:  Solving for Ux, Initial residual = 0.663973, Final residual = 0.0745725, No Iterations 1000
smoothSolver:  Solving for Uy, Initial residual = 0.656848, Final residual = 9.48328e-06, No Iterations 45
GAMG:  Solving for p, Initial residual = 0.714885, Final residual = 0.157907, No Iterations 1000
time step continuity errors : sum local = 7.44398e-17, global = 2.64259e-17, cumulative = -0.000891442
GAMG:  Solving for p, Initial residual = 0.0747721, Final residual = 0.0179586, No Iterations 1000
time step continuity errors : sum local = 7.1799e-17, global = 3.33296e-17, cumulative = -0.000891442
GAMG:  Solving for p, Initial residual = 0.36676, Final residual = 0.277922, No Iterations 1000
time step continuity errors : sum local = 7.91403e-17, global = 2.49718e-17, cumulative = -0.000891442
GAMG:  Solving for p, Initial residual = 0.174851, Final residual = 0.20231, No Iterations 1000
time step continuity errors : sum local = 1.02481e-16, global = 3.92332e-17, cumulative = -0.000891442
GAMG:  Solving for p, Initial residual = 0.526923, Final residual = 0.262498, No Iterations 1000
time step continuity errors : sum local = 7.26777e-17, global = 2.10545e-17, cumulative = -0.000891442
ExecutionTime = 3.49 s  ClockTime = 4 s

Time = 0.56

Courant Number mean: 0.100749 max: 0.100749
smoothSolver:  Solving for Ux, Initial residual = 0.696708, Final residual = 0.0682573, No Iterations 1000
smoothSolver:  Solving for Uy, Initial residual = 0.544437, Final residual = 8.12093e-06, No Iterations 44
GAMG:  Solving for p, Initial residual = 0.589589, Final residual = 0.11292, No Iterations 1000
time step continuity errors : sum local = 7.36959e-17, global = 3.36061e-17, cumulative = -0.000891442
GAMG:  Solving for p, Initial residual = 0.0678394, Final residual = 0.0182729, No Iterations 1000
time step continuity errors : sum local = 6.84232e-17, global = 2.86916e-17, cumulative = -0.000891442
GAMG:  Solving for p, Initial residual = 0.477991, Final residual = 0.409702, No Iterations 1000
time step continuity errors : sum local = 8.20524e-17, global = 4.0771e-17, cumulative = -0.000891442
GAMG:  Solving for p, Initial residual = 0.300242, Final residual = 0.228149, No Iterations 1000
time step continuity errors : sum local = 7.27082e-17, global = 2.15943e-17, cumulative = -0.000891442
GAMG:  Solving for p, Initial residual = 0.283293, Final residual = 0.291249, No Iterations 1000
time step continuity errors : sum local = 1.02969e-16, global = 1.64578e-17, cumulative = -0.000891442
ExecutionTime = 3.82 s  ClockTime = 4 s

Time = 0.57

Courant Number mean: 0.100749 max: 0.100749
smoothSolver:  Solving for Ux, Initial residual = 0.729093, Final residual = 0.0698735, No Iterations 1000
smoothSolver:  Solving for Uy, Initial residual = 0.447255, Final residual = 7.87467e-06, No Iterations 43
GAMG:  Solving for p, Initial residual = 0.660231, Final residual = 0.170369, No Iterations 1000
time step continuity errors : sum local = 8.31398e-17, global = 1.14336e-17, cumulative = -0.000891442
GAMG:  Solving for p, Initial residual = 0.0825556, Final residual = 0.0215212, No Iterations 1000
time step continuity errors : sum local = 7.10204e-17, global = 2.8875e-17, cumulative = -0.000891442
GAMG:  Solving for p, Initial residual = 0.321646, Final residual = 0.249677, No Iterations 1000
time step continuity errors : sum local = 7.80547e-17, global = 2.07107e-17, cumulative = -0.000891442
GAMG:  Solving for p, Initial residual = 0.321655, Final residual = 0.239394, No Iterations 1000
time step continuity errors : sum local = 8.23434e-17, global = 3.70051e-17, cumulative = -0.000891442
GAMG:  Solving for p, Initial residual = 0.289387, Final residual = 0.209974, No Iterations 1000
time step continuity errors : sum local = 7.02761e-17, global = 2.73779e-17, cumulative = -0.000891442
ExecutionTime = 4.18 s  ClockTime = 5 s

Time = 0.58

Courant Number mean: 0.100749 max: 0.100749
smoothSolver:  Solving for Ux, Initial residual = 0.8058, Final residual = 0.104609, No Iterations 1000
smoothSolver:  Solving for Uy, Initial residual = 0.438149, Final residual = 8.02333e-06, No Iterations 42
GAMG:  Solving for p, Initial residual = 0.795798, Final residual = 0.263771, No Iterations 1000
time step continuity errors : sum local = 6.89906e-17, global = 2.32765e-17, cumulative = -0.000891442
GAMG:  Solving for p, Initial residual = 0.380893, Final residual = 0.166361, No Iterations 1000
time step continuity errors : sum local = 8.35918e-17, global = 2.07423e-17, cumulative = -0.000891442
GAMG:  Solving for p, Initial residual = 0.291053, Final residual = 0.221441, No Iterations 1000
time step continuity errors : sum local = 8.40654e-17, global = 3.28485e-17, cumulative = -0.000891442
GAMG:  Solving for p, Initial residual = 0.370858, Final residual = 0.323669, No Iterations 1000
time step continuity errors : sum local = 7.62505e-17, global = 2.014e-17, cumulative = -0.000891442
GAMG:  Solving for p, Initial residual = 0.281297, Final residual = 0.237706, No Iterations 1000
time step continuity errors : sum local = 7.06851e-17, global = 2.73811e-17, cumulative = -0.000891442
ExecutionTime = 4.54 s  ClockTime = 5 s

Time = 0.59

Courant Number mean: 0.100749 max: 0.100749
smoothSolver:  Solving for Ux, Initial residual = 0.68952, Final residual = 0.164466, No Iterations 1000
smoothSolver:  Solving for Uy, Initial residual = 0.454289, Final residual = 9.71603e-06, No Iterations 40
GAMG:  Solving for p, Initial residual = 0.691712, Final residual = 0.345163, No Iterations 1000
time step continuity errors : sum local = 7.42561e-17, global = 1.87085e-17, cumulative = -0.000891442
GAMG:  Solving for p, Initial residual = 0.422536, Final residual = 0.287581, No Iterations 1000
time step continuity errors : sum local = 7.65692e-17, global = 2.98336e-17, cumulative = -0.000891442
GAMG:  Solving for p, Initial residual = 0.274651, Final residual = 0.233505, No Iterations 1000
time step continuity errors : sum local = 7.38851e-17, global = 2.74665e-17, cumulative = -0.000891442
GAMG:  Solving for p, Initial residual = 0.428064, Final residual = 0.333574, No Iterations 1000
time step continuity errors : sum local = 6.46394e-17, global = 3.07351e-17, cumulative = -0.000891442
GAMG:  Solving for p, Initial residual = 0.326629, Final residual = 0.232632, No Iterations 1000
time step continuity errors : sum local = 7.08353e-17, global = 2.65648e-17, cumulative = -0.000891442
ExecutionTime = 4.87 s  ClockTime = 5 s

Time = 0.6

Courant Number mean: 0.100749 max: 0.100749
smoothSolver:  Solving for Ux, Initial residual = 0.627382, Final residual = 0.158563, No Iterations 1000
smoothSolver:  Solving for Uy, Initial residual = 0.530363, Final residual = 9.96033e-06, No Iterations 43
GAMG:  Solving for p, Initial residual = 0.682496, Final residual = 0.239864, No Iterations 1000
time step continuity errors : sum local = 8.74192e-17, global = 2.5743e-17, cumulative = -0.000891442
GAMG:  Solving for p, Initial residual = 0.275045, Final residual = 0.111282, No Iterations 1000
time step continuity errors : sum local = 7.09916e-17, global = 3.0675e-17, cumulative = -0.000891442
GAMG:  Solving for p, Initial residual = 0.297057, Final residual = 0.229389, No Iterations 1000
time step continuity errors : sum local = 6.39208e-17, global = 2.61401e-17, cumulative = -0.000891442
GAMG:  Solving for p, Initial residual = 0.368022, Final residual = 0.337834, No Iterations 1000
time step continuity errors : sum local = 6.24472e-17, global = 2.82676e-17, cumulative = -0.000891442
GAMG:  Solving for p, Initial residual = 0.338992, Final residual = 0.477595, No Iterations 1000
time step continuity errors : sum local = 1.01292e-16, global = 1.37411e-17, cumulative = -0.000891442
ExecutionTime = 5.27 s  ClockTime = 6 s

Time = 0.61

[...]
smoothSolver:  Solving for Uy, Initial residual = 0.610253, Final residual = 8.80618e-06, No Iterations 44
GAMG:  Solving for p, Initial residual = 0.615881, Final residual = 0.12364, No Iterations 1000
time step continuity errors : sum local = 7.70584e-17, global = 3.7512e-17, cumulative = -0.000891442
GAMG:  Solving for p, Initial residual = 0.0780438, Final residual = 0.0224084, No Iterations 1000
time step continuity errors : sum local = 8.12264e-17, global = 2.38472e-17, cumulative = -0.000891442
GAMG:  Solving for p, Initial residual = 0.459944, Final residual = 0.404245, No Iterations 1000
time step continuity errors : sum local = 8.39178e-17, global = 2.3976e-17, cumulative = -0.000891442
GAMG:  Solving for p, Initial residual = 0.48111, Final residual = 0.367555, No Iterations 1000
time step continuity errors : sum local = 8.05688e-17, global = 2.21296e-17, cumulative = -0.000891442
GAMG:  Solving for p, Initial residual = 0.494981, Final residual = 0.486436, No Iterations 1000
time step continuity errors : sum local = 7.8205e-17, global = 2.78846e-17, cumulative = -0.000891442
ExecutionTime = 55.99 s  ClockTime = 56 s

Time = 2.06

Courant Number mean: 0.100749 max: 0.100749
smoothSolver:  Solving for Ux, Initial residual = 0.763205, Final residual = 0.083549, No Iterations 1000
smoothSolver:  Solving for Uy, Initial residual = 0.392665, Final residual = 9.3875e-06, No Iterations 40
GAMG:  Solving for p, Initial residual = 0.597174, Final residual = 0.2172, No Iterations 1000
time step continuity errors : sum local = 8.2498e-17, global = 3.67195e-17, cumulative = -0.000891442
GAMG:  Solving for p, Initial residual = 0.153199, Final residual = 0.0802904, No Iterations 1000
time step continuity errors : sum local = 7.82806e-17, global = 4.19167e-17, cumulative = -0.000891442
GAMG:  Solving for p, Initial residual = 0.420938, Final residual = 0.35447, No Iterations 1000
time step continuity errors : sum local = 7.18424e-17, global = 3.74648e-17, cumulative = -0.000891442
GAMG:  Solving for p, Initial residual = 0.543686, Final residual = 0.598156, No Iterations 1000
time step continuity errors : sum local = 7.93547e-17, global = 2.89417e-17, cumulative = -0.000891442
GAMG:  Solving for p, Initial residual = 0.400833, Final residual = 0.298434, No Iterations 1000
time step continuity errors : sum local = 7.31362e-17, global = 2.97282e-17, cumulative = -0.000891442
ExecutionTime = 56.33 s  ClockTime = 57 s

Time = 2.07

Courant Number mean: 0.100749 max: 0.100749
smoothSolver:  Solving for Ux, Initial residual = 0.672899, Final residual = 0.185298, No Iterations 1000
smoothSolver:  Solving for Uy, Initial residual = 0.478846, Final residual = 9.24359e-06, No Iterations 41
GAMG:  Solving for p, Initial residual = 0.732331, Final residual = 0.214693, No Iterations 1000
time step continuity errors : sum local = 6.61262e-17, global = 2.49656e-17, cumulative = -0.000891442
GAMG:  Solving for p, Initial residual = 0.126547, Final residual = 0.0734268, No Iterations 1000
time step continuity errors : sum local = 7.51181e-17, global = 3.52653e-17, cumulative = -0.000891442
GAMG:  Solving for p, Initial residual = 0.47836, Final residual = 0.489657, No Iterations 1000
time step continuity errors : sum local = 8.92659e-17, global = 1.73733e-17, cumulative = -0.000891442
GAMG:  Solving for p, Initial residual = 0.388786, Final residual = 0.231689, No Iterations 1000
time step continuity errors : sum local = 7.59472e-17, global = 3.56484e-17, cumulative = -0.000891442
GAMG:  Solving for p, Initial residual = 0.316948, Final residual = 0.327791, No Iterations 1000
time step continuity errors : sum local = 8.76459e-17, global = 2.50743e-17, cumulative = -0.000891442
ExecutionTime = 56.65 s  ClockTime = 57 s

Time = 2.08

Courant Number mean: 0.100749 max: 0.100749
smoothSolver:  Solving for Ux, Initial residual = 0.63828, Final residual = 0.0937293, No Iterations 1000
smoothSolver:  Solving for Uy, Initial residual = 0.511806, Final residual = 8.03936e-06, No Iterations 42
GAMG:  Solving for p, Initial residual = 0.666023, Final residual = 0.158118, No Iterations 1000
time step continuity errors : sum local = 8.18243e-17, global = 2.66549e-17, cumulative = -0.000891442
GAMG:  Solving for p, Initial residual = 0.114185, Final residual = 0.0400648, No Iterations 1000
time step continuity errors : sum local = 7.60097e-17, global = 2.81094e-17, cumulative = -0.000891442
GAMG:  Solving for p, Initial residual = 0.389706, Final residual = 0.348835, No Iterations 1000
time step continuity errors : sum local = 8.49748e-17, global = 3.39129e-17, cumulative = -0.000891442
GAMG:  Solving for p, Initial residual = 0.35797, Final residual = 0.301639, No Iterations 1000
time step continuity errors : sum local = 8.29784e-17, global = 4.19757e-17, cumulative = -0.000891442
GAMG:  Solving for p, Initial residual = 0.545664, Final residual = 0.62272, No Iterations 1000
time step continuity errors : sum local = 9.35796e-17, global = 1.98831e-17, cumulative = -0.000891442
ExecutionTime = 57.02 s  ClockTime = 57 s

Time = 2.09

Courant Number mean: 0.100749 max: 0.100749
smoothSolver:  Solving for Ux, Initial residual = 0.733448, Final residual = 0.0803181, No Iterations 1000
smoothSolver:  Solving for Uy, Initial residual = 0.486682, Final residual = 8.8719e-06, No Iterations 42
GAMG:  Solving for p, Initial residual = 0.615107, Final residual = 0.127266, No Iterations 1000
time step continuity errors : sum local = 7.82974e-17, global = 3.02284e-17, cumulative = -0.000891442
GAMG:  Solving for p, Initial residual = 0.0848331, Final residual = 0.0226183, No Iterations 1000
time step continuity errors : sum local = 7.10471e-17, global = 3.28571e-17, cumulative = -0.000891442
GAMG:  Solving for p, Initial residual = 0.496378, Final residual = 0.359607, No Iterations 1000
time step continuity errors : sum local = 8.40455e-17, global = 4.01976e-17, cumulative = -0.000891442
GAMG:  Solving for p, Initial residual = 0.578371, Final residual = 0.324766, No Iterations 1000
time step continuity errors : sum local = 6.70251e-17, global = 2.83957e-17, cumulative = -0.000891442
GAMG:  Solving for p, Initial residual = 0.328264, Final residual = 0.312714, No Iterations 1000
time step continuity errors : sum local = 6.31847e-17, global = 2.60568e-17, cumulative = -0.000891442
ExecutionTime = 57.36 s  ClockTime = 58 s

Time = 2.1

Courant Number mean: 0.100749 max: 0.100749
smoothSolver:  Solving for Ux, Initial residual = 0.798167, Final residual = 0.102804, No Iterations 1000
smoothSolver:  Solving for Uy, Initial residual = 0.391196, Final residual = 9.71718e-06, No Iterations 38
GAMG:  Solving for p, Initial residual = 0.762165, Final residual = 0.28006, No Iterations 1000
time step continuity errors : sum local = 7.70928e-17, global = 3.04129e-17, cumulative = -0.000891442
GAMG:  Solving for p, Initial residual = 0.209634, Final residual = 0.114162, No Iterations 1000
time step continuity errors : sum local = 7.48522e-17, global = 3.67507e-17, cumulative = -0.000891442
GAMG:  Solving for p, Initial residual = 0.536061, Final residual = 0.321525, No Iterations 1000
time step continuity errors : sum local = 7.04779e-17, global = 2.65947e-17, cumulative = -0.000891442
GAMG:  Solving for p, Initial residual = 0.216373, Final residual = 0.21321, No Iterations 1000
time step continuity errors : sum local = 6.7295e-17, global = 3.2704e-17, cumulative = -0.000891442
GAMG:  Solving for p, Initial residual = 0.397932, Final residual = 0.294882, No Iterations 1000
time step continuity errors : sum local = 7.19876e-17, global = 2.91262e-17, cumulative = -0.000891442
ExecutionTime = 57.7 s  ClockTime = 58 s

Time = 2.11

Courant Number mean: 0.100749 max: 0.100749
smoothSolver:  Solving for Ux, Initial residual = 0.679095, Final residual = 0.195308, No Iterations 1000
smoothSolver:  Solving for Uy, Initial residual = 0.407542, Final residual = 8.76721e-06, No Iterations 42
GAMG:  Solving for p, Initial residual = 0.633508, Final residual = 0.222562, No Iterations 1000
time step continuity errors : sum local = 7.20113e-17, global = 2.99566e-17, cumulative = -0.000891442
GAMG:  Solving for p, Initial residual = 0.107731, Final residual = 0.0490041, No Iterations 1000
time step continuity errors : sum local = 7.09193e-17, global = 3.11748e-17, cumulative = -0.000891442
GAMG:  Solving for p, Initial residual = 0.287437, Final residual = 0.293087, No Iterations 1000
time step continuity errors : sum local = 6.86281e-17, global = 3.48381e-17, cumulative = -0.000891442
GAMG:  Solving for p, Initial residual = 0.250397, Final residual = 0.207666, No Iterations 1000
time step continuity errors : sum local = 7.6916e-17, global = 3.34692e-17, cumulative = -0.000891442
GAMG:  Solving for p, Initial residual = 0.430125, Final residual = 0.313504, No Iterations 1000
time step continuity errors : sum local = 7.53694e-17, global = 2.24692e-17, cumulative = -0.000891442
ExecutionTime = 58.06 s  ClockTime = 58 s

Time = 2.12

Courant Number mean: 0.100749 max: 0.100749
smoothSolver:  Solving for Ux, Initial residual = 0.707505, Final residual = 0.106911, No Iterations 1000
smoothSolver:  Solving for Uy, Initial residual = 0.440983, Final residual = 8.01362e-06, No Iterations 42
GAMG:  Solving for p, Initial residual = 0.639148, Final residual = 0.124757, No Iterations 1000
time step continuity errors : sum local = 7.6937e-17, global = 4.10265e-17, cumulative = -0.000891442
GAMG:  Solving for p, Initial residual = 0.0721715, Final residual = 0.0150674, No Iterations 1000
time step continuity errors : sum local = 6.58543e-17, global = 3.4027e-17, cumulative = -0.000891442
GAMG:  Solving for p, Initial residual = 0.276632, Final residual = 0.203176, No Iterations 1000
time step continuity errors : sum local = 7.26528e-17, global = 4.02623e-17, cumulative = -0.000891442
GAMG:  Solving for p, Initial residual = 0.413858, Final residual = 0.352014, No Iterations 1000
time step continuity errors : sum local = 8.76599e-17, global = 2.04343e-17, cumulative = -0.000891442
GAMG:  Solving for p, Initial residual = 0.207375, Final residual = 0.164896, No Iterations 1000
time step continuity errors : sum local = 7.89633e-17, global = 2.95064e-17, cumulative = -0.000891442
ExecutionTime = 58.4 s  ClockTime = 59 s

Time = 2.13

Courant Number mean: 0.100749 max: 0.100749
smoothSolver:  Solving for Ux, Initial residual = 0.80148, Final residual = 0.0739495, No Iterations 1000
smoothSolver:  Solving for Uy, Initial residual = 0.472481, Final residual = 8.24193e-06, No Iterations 41
GAMG:  Solving for p, Initial residual = 0.76648, Final residual = 0.214315, No Iterations 1000
time step continuity errors : sum local = 6.66695e-17, global = 2.82111e-17, cumulative = -0.000891442
GAMG:  Solving for p, Initial residual = 0.323263, Final residual = 0.146489, No Iterations 1000
time step continuity errors : sum local = 7.49522e-17, global = 3.1161e-17, cumulative = -0.000891442
GAMG:  Solving for p, Initial residual = 0.200647, Final residual = 0.133661, No Iterations 1000
time step continuity errors : sum local = 7.42551e-17, global = 3.4385e-17, cumulative = -0.000891442
GAMG:  Solving for p, Initial residual = 0.259482, Final residual = 0.250915, No Iterations 1000
time step continuity errors : sum local = 6.81242e-17, global = 3.34382e-17, cumulative = -0.000891442
GAMG:  Solving for p, Initial residual = 0.549153, Final residual = 0.553362, No Iterations 1000
time step continuity errors : sum local = 7.55942e-17, global = 2.74506e-17, cumulative = -0.000891442
ExecutionTime = 58.74 s  ClockTime = 59 s

Time = 2.14

Courant Number mean: 0.100749 max: 0.100749
smoothSolver:  Solving for Ux, Initial residual = 0.733202, Final residual = 0.196499, No Iterations 1000
smoothSolver:  Solving for Uy, Initial residual = 0.562425, Final residual = 8.28917e-06, No Iterations 43
GAMG:  Solving for p, Initial residual = 0.846767, Final residual = 0.233873, No Iterations 1000
time step continuity errors : sum local = 8.37733e-17, global = 3.51145e-17, cumulative = -0.000891442
GAMG:  Solving for p, Initial residual = 0.418386, Final residual = 0.211921, No Iterations 1000
time step continuity errors : sum local = 9.84143e-17, global = 4.01185e-17, cumulative = -0.000891442
GAMG:  Solving for p, Initial residual = 0.457253, Final residual = 0.274666, No Iterations 1000
time step continuity errors : sum local = 6.87506e-17, global = 2.88072e-17, cumulative = -0.000891442
GAMG:  Solving for p, Initial residual = 0.329135, Final residual = 0.26614, No Iterations 1000
time step continuity errors : sum local = 6.80047e-17, global = 3.65622e-17, cumulative = -0.000891442
GAMG:  Solving for p, Initial residual = 0.390833, Final residual = 0.367334, No Iterations 1000
time step continuity errors : sum local = 6.62014e-17, global = 2.45608e-17, cumulative = -0.000891442
ExecutionTime = 59.09 s  ClockTime = 60 s

Time = 2.15

Courant Number mean: 0.100749 max: 0.100749
smoothSolver:  Solving for Ux, Initial residual = 0.70062, Final residual = 0.165144, No Iterations 1000
smoothSolver:  Solving for Uy, Initial residual = 0.47958, Final residual = 8.53404e-06, No Iterations 43
GAMG:  Solving for p, Initial residual = 0.646653, Final residual = 0.21739, No Iterations 1000
time step continuity errors : sum local = 8.54958e-17, global = 2.47942e-17, cumulative = -0.000891442
GAMG:  Solving for p, Initial residual = 0.122377, Final residual = 0.0427065, No Iterations 1000
time step continuity errors : sum local = 7.11429e-17, global = 3.06785e-17, cumulative = -0.000891442
GAMG:  Solving for p, Initial residual = 0.396336, Final residual = 0.337436, No Iterations 1000
time step continuity errors : sum local = 8.14761e-17, global = 2.56326e-17, cumulative = -0.000891442
GAMG:  Solving for p, Initial residual = 0.410811, Final residual = 0.5492, No Iterations 1000
time step continuity errors : sum local = 1.18012e-16, global = 5.47785e-17, cumulative = -0.000891442
GAMG:  Solving for p, Initial residual = 0.369891, Final residual = 0.201638, No Iterations 1000
time step continuity errors : sum local = 7.70078e-17, global = 3.16403e-17, cumulative = -0.000891442
ExecutionTime = 59.43 s  ClockTime = 60 s

Time = 2.16

Courant Number mean: 0.100749 max: 0.100749
smoothSolver:  Solving for Ux, Initial residual = 0.721046, Final residual = 0.0938415, No Iterations 1000
smoothSolver:  Solving for Uy, Initial residual = 0.468947, Final residual = 9.91095e-06, No Iterations 39
GAMG:  Solving for p, Initial residual = 0.604995, Final residual = 0.115644, No Iterations 1000
time step continuity errors : sum local = 7.98351e-17, global = 2.81761e-17, cumulative = -0.000891442
GAMG:  Solving for p, Initial residual = 0.0682756, Final residual = 0.0194602, No Iterations 1000
time step continuity errors : sum local = 7.48164e-17, global = 3.04605e-17, cumulative = -0.000891442
GAMG:  Solving for p, Initial residual = 0.444038, Final residual = 0.262461, No Iterations 1000
time step continuity errors : sum local = 7.59811e-17, global = 3.42491e-17, cumulative = -0.000891442
GAMG:  Solving for p, Initial residual = 0.567365, Final residual = 0.430495, No Iterations 1000
time step continuity errors : sum local = 7.65889e-17, global = 3.83224e-17, cumulative = -0.000891442
GAMG:  Solving for p, Initial residual = 0.609733, Final residual = 0.543278, No Iterations 1000
time step continuity errors : sum local = 8.40172e-17, global = 2.38146e-17, cumulative = -0.000891442
ExecutionTime = 59.77 s  ClockTime = 60 s

Time = 2.17

Courant Number mean: 0.100749 max: 0.100749
smoothSolver:  Solving for Ux, Initial residual = 0.763475, Final residual = 0.0706474, No Iterations 1000
smoothSolver:  Solving for Uy, Initial residual = 0.354754, Final residual = 9.24447e-06, No Iterations 41
GAMG:  Solving for p, Initial residual = 0.600347, Final residual = 0.151156, No Iterations 1000
time step continuity errors : sum local = 8.20834e-17, global = 3.26815e-17, cumulative = -0.000891442
GAMG:  Solving for p, Initial residual = 0.0925409, Final residual = 0.0289029, No Iterations 1000
time step continuity errors : sum local = 7.05829e-17, global = 2.78046e-17, cumulative = -0.000891442
GAMG:  Solving for p, Initial residual = 0.449438, Final residual = 0.385348, No Iterations 1000
time step continuity errors : sum local = 8.08194e-17, global = 2.64298e-17, cumulative = -0.000891442
GAMG:  Solving for p, Initial residual = 0.408842, Final residual = 0.296258, No Iterations 1000
time step continuity errors : sum local = 7.89403e-17, global = 3.74009e-17, cumulative = -0.000891442
GAMG:  Solving for p, Initial residual = 0.451457, Final residual = 0.392938, No Iterations 1000
time step continuity errors : sum local = 6.23518e-17, global = 3.54541e-17, cumulative = -0.000891442
ExecutionTime = 60.1 s  ClockTime = 61 s

Time = 2.18

Courant Number mean: 0.100749 max: 0.100749
smoothSolver:  Solving for Ux, Initial residual = 0.673445, Final residual = 0.0690901, No Iterations 1000
smoothSolver:  Solving for Uy, Initial residual = 0.385708, Final residual = 9.37607e-06, No Iterations 39
GAMG:  Solving for p, Initial residual = 0.695099, Final residual = 0.153627, No Iterations 1000
time step continuity errors : sum local = 7.69061e-17, global = 2.55385e-17, cumulative = -0.000891442
GAMG:  Solving for p, Initial residual = 0.114681, Final residual = 0.0244463, No Iterations 1000
time step continuity errors : sum local = 7.04678e-17, global = 3.26898e-17, cumulative = -0.000891442
GAMG:  Solving for p, Initial residual = 0.340704, Final residual = 0.248489, No Iterations 1000
time step continuity errors : sum local = 7.14603e-17, global = 2.62743e-17, cumulative = -0.000891442
GAMG:  Solving for p, Initial residual = 0.489804, Final residual = 0.388087, No Iterations 1000
time step continuity errors : sum local = 6.64084e-17, global = 2.88923e-17, cumulative = -0.000891442
GAMG:  Solving for p, Initial residual = 0.510688, Final residual = 0.508106, No Iterations 1000
time step continuity errors : sum local = 8.3526e-17, global = 3.19373e-17, cumulative = -0.000891442
ExecutionTime = 60.41 s  ClockTime = 61 s

Time = 2.19

Courant Number mean: 0.100749 max: 0.100749
smoothSolver:  Solving for Ux, Initial residual = 0.748154, Final residual = 0.096924, No Iterations 1000
smoothSolver:  Solving for Uy, Initial residual = 0.43188, Final residual = 8.68353e-06, No Iterations 41
GAMG:  Solving for p, Initial residual = 0.664375, Final residual = 0.187936, No Iterations 1000
time step continuity errors : sum local = 7.06288e-17, global = 2.96664e-17, cumulative = -0.000891442
GAMG:  Solving for p, Initial residual = 0.142091, Final residual = 0.0613159, No Iterations 1000
time step continuity errors : sum local = 7.34035e-17, global = 3.46875e-17, cumulative = -0.000891442
GAMG:  Solving for p, Initial residual = 0.361501, Final residual = 0.329491, No Iterations 1000
time step continuity errors : sum local = 7.6696e-17, global = 2.93371e-17, cumulative = -0.000891442
GAMG:  Solving for p, Initial residual = 0.240968, Final residual = 0.207326, No Iterations 1000
time step continuity errors : sum local = 6.26719e-17, global = 2.58921e-17, cumulative = -0.000891442
GAMG:  Solving for p, Initial residual = 0.339726, Final residual = 0.287344, No Iterations 1000
time step continuity errors : sum local = 7.25779e-17, global = 3.33135e-17, cumulative = -0.000891442
ExecutionTime = 60.72 s  ClockTime = 61 s

Time = 2.2

Courant Number mean: 0.100749 max: 0.100749
smoothSolver:  Solving for Ux, Initial residual = 0.641885, Final residual = 0.100224, No Iterations 1000
smoothSolver:  Solving for Uy, Initial residual = 0.454157, Final residual = 9.9479e-06, No Iterations 41
GAMG:  Solving for p, Initial residual = 0.636365, Final residual = 0.152578, No Iterations 1000
time step continuity errors : sum local = 8.50995e-17, global = 3.83688e-17, cumulative = -0.000891442
