/*---------------------------------------------------------------------------*\
| =========                 |                                                 |
| \\      /  F ield         | OpenFOAM: The Open Source CFD Toolbox           |
|  \\    /   O peration     | Version:  5.0                                   |
|   \\  /    A nd           | Web:      www.OpenFOAM.org                      |
|    \\/     M anipulation  |                                                 |
\*---------------------------------------------------------------------------*/
Build  : 5.0-dbb428a3a855
Exec   : AnonNewtonianIcoFoam -parallel
Date   : Oct 25 2017
Time   : 17:00:54
Host   : "hermes-N552VW"
PID    : 23094
I/O    : uncollated
Case   : /home/hermes/Desktop/gitDPD/DPDCFD/poiseuilleflow
nProcs : 2
Slaves : 1("hermes-N552VW.23095")
Pstream initialized with:
    floatTransfer      : 0
    nProcsSimpleSum    : 0
    commsType          : nonBlocking
    polling iterations : 0
sigFpe : Enabling floating point exception trapping (FOAM_SIGFPE).
fileModificationChecking : Monitoring run-time modified files using timeStampMaster (fileModificationSkew 10)
allowSystemOperations : Allowing user-supplied system call operations

// * * * * * * * * * * * * * * * * * * * * * * * * * * * * * * * * * * * * * //
Create time

Create mesh, no clear-out for time = 0


PISO: Operating solver in PISO mode

Reading field p

Reading field U

Hey! I am faking the viscosity 

Reading/calculating face flux field phi

Selecting incompressible transport model CrossPowerLaw

Starting time loop

Time = 0.01

Courant Number mean: 0.1 max: 0.1
Bad Mood
Bad Mood
smoothSolver:  Solving for Ux, Initial residual = 1, Final residual = 6.56804e-06, No Iterations 13
smoothSolver:  Solving for Uy, Initial residual = 0.996488, Final residual = 4.22069e-06, No Iterations 10
GAMG:  Solving for p, Initial residual = 1, Final residual = 0.0631586, No Iterations 5
time step continuity errors : sum local = 0.00108588, global = -9.31667e-05, cumulative = -9.31667e-05
GAMG:  Solving for p, Initial residual = 0.218916, Final residual = 0.0205008, No Iterations 5
time step continuity errors : sum local = 0.000918407, global = 8.50653e-05, cumulative = -8.10136e-06
GAMG:  Solving for p, Initial residual = 0.144608, Final residual = 0.00881315, No Iterations 5
time step continuity errors : sum local = 0.000152784, global = 1.29824e-05, cumulative = 4.88102e-06
GAMG:  Solving for p, Initial residual = 0.0502852, Final residual = 0.00438883, No Iterations 2
time step continuity errors : sum local = 6.31702e-05, global = -4.97989e-06, cumulative = -9.88651e-08
GAMG:  Solving for p, Initial residual = 0.0273813, Final residual = 7.87936e-07, No Iterations 18
time step continuity errors : sum local = 1.0733e-08, global = -7.07804e-10, cumulative = -9.9573e-08
ExecutionTime = 0.01 s  ClockTime = 0 s

Time = 0.02

Courant Number mean: 0.0844079 max: 0.109674
Bad Mood
Bad Mood
smoothSolver:  Solving for Ux, Initial residual = 0.100953, Final residual = 7.32245e-06, No Iterations 10
smoothSolver:  Solving for Uy, Initial residual = 0.623784, Final residual = 5.13783e-06, No Iterations 10
GAMG:  Solving for p, Initial residual = 0.0451864, Final residual = 0.00282425, No Iterations 3
time step continuity errors : sum local = 3.68278e-05, global = 3.08111e-07, cumulative = 2.08538e-07
GAMG:  Solving for p, Initial residual = 0.0164799, Final residual = 0.00115362, No Iterations 4
time step continuity errors : sum local = 1.46667e-05, global = -1.38189e-06, cumulative = -1.17336e-06
GAMG:  Solving for p, Initial residual = 0.00537074, Final residual = 0.000310278, No Iterations 4
time step continuity errors : sum local = 3.92862e-06, global = -1.36406e-07, cumulative = -1.30976e-06
GAMG:  Solving for p, Initial residual = 0.00254291, Final residual = 0.000161844, No Iterations 4
time step continuity errors : sum local = 2.04851e-06, global = 1.93998e-07, cumulative = -1.11576e-06
GAMG:  Solving for p, Initial residual = 0.0014329, Final residual = 9.86594e-07, No Iterations 12
time step continuity errors : sum local = 1.25063e-08, global = 7.90234e-10, cumulative = -1.11497e-06
ExecutionTime = 0.02 s  ClockTime = 0 s

Time = 0.03

Courant Number mean: 0.079071 max: 0.111883
Bad Mood
Bad Mood
smoothSolver:  Solving for Ux, Initial residual = 0.0280718, Final residual = 4.68484e-06, No Iterations 10
smoothSolver:  Solving for Uy, Initial residual = 0.211515, Final residual = 9.79842e-06, No Iterations 7
GAMG:  Solving for p, Initial residual = 0.00674342, Final residual = 0.0006548, No Iterations 2
time step continuity errors : sum local = 8.26664e-06, global = 4.69578e-07, cumulative = -6.45395e-07
GAMG:  Solving for p, Initial residual = 0.00195823, Final residual = 0.00019385, No Iterations 4
time step continuity errors : sum local = 2.43573e-06, global = -2.77948e-07, cumulative = -9.23343e-07
GAMG:  Solving for p, Initial residual = 0.000640023, Final residual = 4.76558e-05, No Iterations 3
time step continuity errors : sum local = 5.9894e-07, global = -1.11566e-08, cumulative = -9.345e-07
GAMG:  Solving for p, Initial residual = 0.000388739, Final residual = 2.91818e-05, No Iterations 4
time step continuity errors : sum local = 3.66968e-07, global = 3.93972e-08, cumulative = -8.95103e-07
GAMG:  Solving for p, Initial residual = 0.000224183, Final residual = 5.85061e-07, No Iterations 10
time step continuity errors : sum local = 7.36001e-09, global = 4.67769e-10, cumulative = -8.94635e-07
ExecutionTime = 0.02 s  ClockTime = 0 s

Time = 0.04

Courant Number mean: 0.0763249 max: 0.111111
Bad Mood
Bad Mood
smoothSolver:  Solving for Ux, Initial residual = 0.0124425, Final residual = 7.39648e-06, No Iterations 9
smoothSolver:  Solving for Uy, Initial residual = 0.142547, Final residual = 4.55354e-06, No Iterations 9
GAMG:  Solving for p, Initial residual = 0.00251046, Final residual = 0.000242369, No Iterations 3
time step continuity errors : sum local = 3.04368e-06, global = -3.41283e-07, cumulative = -1.23592e-06
GAMG:  Solving for p, Initial residual = 0.000514594, Final residual = 3.43204e-05, No Iterations 4
time step continuity errors : sum local = 4.30181e-07, global = -4.92927e-08, cumulative = -1.28521e-06
GAMG:  Solving for p, Initial residual = 0.000223247, Final residual = 1.69743e-05, No Iterations 4
time step continuity errors : sum local = 2.12844e-07, global = 2.35021e-08, cumulative = -1.26171e-06
GAMG:  Solving for p, Initial residual = 0.00014872, Final residual = 1.33031e-05, No Iterations 4
time step continuity errors : sum local = 1.66847e-07, global = 1.37453e-08, cumulative = -1.24796e-06
GAMG:  Solving for p, Initial residual = 8.35425e-05, Final residual = 6.5266e-07, No Iterations 8
time step continuity errors : sum local = 8.18668e-09, global = 5.05866e-10, cumulative = -1.24746e-06
ExecutionTime = 0.02 s  ClockTime = 0 s

Time = 0.05

Courant Number mean: 0.0745247 max: 0.109495
Bad Mood
Bad Mood
smoothSolver:  Solving for Ux, Initial residual = 0.00834586, Final residual = 5.64788e-06, No Iterations 9
smoothSolver:  Solving for Uy, Initial residual = 0.234345, Final residual = 7.81473e-06, No Iterations 9
GAMG:  Solving for p, Initial residual = 0.00111318, Final residual = 8.77446e-05, No Iterations 3
time step continuity errors : sum local = 1.09974e-06, global = -5.55353e-08, cumulative = -1.30299e-06
GAMG:  Solving for p, Initial residual = 0.000252358, Final residual = 2.13644e-05, No Iterations 4
time step continuity errors : sum local = 2.67566e-07, global = -3.11258e-08, cumulative = -1.33412e-06
GAMG:  Solving for p, Initial residual = 8.54451e-05, Final residual = 6.57894e-06, No Iterations 3
time step continuity errors : sum local = 8.24146e-08, global = -4.28093e-09, cumulative = -1.3384e-06
GAMG:  Solving for p, Initial residual = 5.74355e-05, Final residual = 4.99451e-06, No Iterations 4
time step continuity errors : sum local = 6.25728e-08, global = 6.67554e-09, cumulative = -1.33172e-06
GAMG:  Solving for p, Initial residual = 3.4792e-05, Final residual = 8.95341e-07, No Iterations 6
time step continuity errors : sum local = 1.12178e-08, global = 6.98109e-10, cumulative = -1.33103e-06
ExecutionTime = 0.02 s  ClockTime = 0 s

Time = 0.06

Courant Number mean: 0.0732029 max: 0.10784
Bad Mood
Bad Mood
smoothSolver:  Solving for Ux, Initial residual = 0.00628349, Final residual = 9.85169e-06, No Iterations 8
smoothSolver:  Solving for Uy, Initial residual = 0.365344, Final residual = 3.99237e-06, No Iterations 10
GAMG:  Solving for p, Initial residual = 0.000601595, Final residual = 5.03259e-05, No Iterations 2
time step continuity errors : sum local = 6.30265e-07, global = 9.62416e-09, cumulative = -1.3214e-06
GAMG:  Solving for p, Initial residual = 0.000229146, Final residual = 2.11855e-05, No Iterations 4
time step continuity errors : sum local = 2.65215e-07, global = -2.59151e-08, cumulative = -1.34732e-06
GAMG:  Solving for p, Initial residual = 5.26865e-05, Final residual = 3.64566e-06, No Iterations 4
time step continuity errors : sum local = 4.56472e-08, global = -3.65996e-09, cumulative = -1.35098e-06
GAMG:  Solving for p, Initial residual = 2.35771e-05, Final residual = 1.52191e-06, No Iterations 4
time step continuity errors : sum local = 1.9057e-08, global = 2.05776e-09, cumulative = -1.34892e-06
GAMG:  Solving for p, Initial residual = 1.52014e-05, Final residual = 6.96536e-07, No Iterations 5
time step continuity errors : sum local = 8.72211e-09, global = 5.41302e-10, cumulative = -1.34838e-06
ExecutionTime = 0.03 s  ClockTime = 0 s

Time = 0.07

Courant Number mean: 0.0721818 max: 0.106421
Bad Mood
Bad Mood
smoothSolver:  Solving for Ux, Initial residual = 0.00496046, Final residual = 7.93181e-06, No Iterations 8
smoothSolver:  Solving for Uy, Initial residual = 0.126948, Final residual = 4.0761e-06, No Iterations 9
GAMG:  Solving for p, Initial residual = 0.000408505, Final residual = 2.55942e-05, No Iterations 4
time step continuity errors : sum local = 3.20399e-07, global = 2.13265e-08, cumulative = -1.32705e-06
GAMG:  Solving for p, Initial residual = 0.000184316, Final residual = 1.36667e-05, No Iterations 5
time step continuity errors : sum local = 1.71039e-07, global = -1.60943e-08, cumulative = -1.34315e-06
GAMG:  Solving for p, Initial residual = 4.23373e-05, Final residual = 3.72863e-06, No Iterations 4
time step continuity errors : sum local = 4.66711e-08, global = -4.32477e-09, cumulative = -1.34747e-06
GAMG:  Solving for p, Initial residual = 1.3008e-05, Final residual = 1.04242e-06, No Iterations 2
time step continuity errors : sum local = 1.30486e-08, global = 1.20347e-09, cumulative = -1.34627e-06
GAMG:  Solving for p, Initial residual = 8.42429e-06, Final residual = 6.7568e-07, No Iterations 4
time step continuity errors : sum local = 8.45802e-09, global = 5.38121e-10, cumulative = -1.34573e-06
ExecutionTime = 0.03 s  ClockTime = 0 s

Time = 0.08

Courant Number mean: 0.071371 max: 0.105231
Bad Mood
Bad Mood
smoothSolver:  Solving for Ux, Initial residual = 0.00398881, Final residual = 6.42938e-06, No Iterations 8
smoothSolver:  Solving for Uy, Initial residual = 0.0434504, Final residual = 3.6271e-06, No Iterations 8
GAMG:  Solving for p, Initial residual = 0.000301567, Final residual = 2.89579e-05, No Iterations 4
time step continuity errors : sum local = 3.6241e-07, global = 2.99208e-08, cumulative = -1.31581e-06
GAMG:  Solving for p, Initial residual = 0.000158582, Final residual = 1.26857e-05, No Iterations 5
time step continuity errors : sum local = 1.5873e-07, global = -1.46778e-08, cumulative = -1.33049e-06
GAMG:  Solving for p, Initial residual = 3.71821e-05, Final residual = 2.35171e-06, No Iterations 5
time step continuity errors : sum local = 2.94296e-08, global = -2.69097e-09, cumulative = -1.33318e-06
GAMG:  Solving for p, Initial residual = 1.02944e-05, Final residual = 8.15275e-07, No Iterations 2
time step continuity errors : sum local = 1.02028e-08, global = 7.59e-10, cumulative = -1.33242e-06
GAMG:  Solving for p, Initial residual = 5.09201e-06, Final residual = 6.57555e-07, No Iterations 3
time step continuity errors : sum local = 8.22914e-09, global = 5.43987e-10, cumulative = -1.33187e-06
ExecutionTime = 0.03 s  ClockTime = 0 s

Time = 0.09

Courant Number mean: 0.0707199 max: 0.104242
Bad Mood
Bad Mood
smoothSolver:  Solving for Ux, Initial residual = 0.0032288, Final residual = 5.22205e-06, No Iterations 8
smoothSolver:  Solving for Uy, Initial residual = 0.0223122, Final residual = 8.95891e-06, No Iterations 6
GAMG:  Solving for p, Initial residual = 0.000238942, Final residual = 1.55921e-05, No Iterations 5
time step continuity errors : sum local = 1.95098e-07, global = 1.67201e-08, cumulative = -1.31515e-06
GAMG:  Solving for p, Initial residual = 0.000129753, Final residual = 1.19042e-05, No Iterations 5
time step continuity errors : sum local = 1.4893e-07, global = -1.36051e-08, cumulative = -1.32876e-06
GAMG:  Solving for p, Initial residual = 3.15783e-05, Final residual = 2.03398e-06, No Iterations 5
time step continuity errors : sum local = 2.54492e-08, global = -2.31941e-09, cumulative = -1.33108e-06
GAMG:  Solving for p, Initial residual = 8.6255e-06, Final residual = 8.52015e-07, No Iterations 2
time step continuity errors : sum local = 1.06607e-08, global = 5.51749e-10, cumulative = -1.33053e-06
GAMG:  Solving for p, Initial residual = 3.86717e-06, Final residual = 8.26377e-07, No Iterations 2
time step continuity errors : sum local = 1.03401e-08, global = 6.93597e-10, cumulative = -1.32983e-06
ExecutionTime = 0.04 s  ClockTime = 0 s

Time = 0.1

Courant Number mean: 0.0701953 max: 0.103432
Bad Mood
Bad Mood
smoothSolver:  Solving for Ux, Initial residual = 0.00261866, Final residual = 9.3498e-06, No Iterations 7
smoothSolver:  Solving for Uy, Initial residual = 0.0220762, Final residual = 4.23611e-06, No Iterations 7
GAMG:  Solving for p, Initial residual = 0.000193646, Final residual = 1.39231e-05, No Iterations 5
time step continuity errors : sum local = 1.7419e-07, global = 1.52034e-08, cumulative = -1.31463e-06
GAMG:  Solving for p, Initial residual = 0.000109911, Final residual = 1.03975e-05, No Iterations 5
time step continuity errors : sum local = 1.30066e-07, global = -1.16209e-08, cumulative = -1.32625e-06
GAMG:  Solving for p, Initial residual = 2.70254e-05, Final residual = 1.86537e-06, No Iterations 5
time step continuity errors : sum local = 2.33365e-08, global = -1.97227e-09, cumulative = -1.32822e-06
GAMG:  Solving for p, Initial residual = 7.5618e-06, Final residual = 6.00479e-07, No Iterations 2
time step continuity errors : sum local = 7.5124e-09, global = 3.82829e-10, cumulative = -1.32784e-06
GAMG:  Solving for p, Initial residual = 3.09813e-06, Final residual = 9.7681e-07, No Iterations 1
time step continuity errors : sum local = 1.22207e-08, global = 8.22873e-10, cumulative = -1.32702e-06
ExecutionTime = 0.04 s  ClockTime = 0 s

Time = 0.11

Courant Number mean: 0.0697723 max: 0.102773
numProcs 2 nprocs 2
Using all 2 for LAMMPS simulation
LAMMPS (14 May 2016)
fix		shear all deform 1 xy erate 0.010359 remap v flip yes units boxfix		shear all deform 1 xy erate 0.010331 remap v flip yes units boxCreated triclinic box = (0 0 0) to (20 20 20) with tilt (0 0 0)
  1 by 1 by 2 MPI processor grid
Read molecule polymer:
  15 atoms with 2 types
  14 bonds with 3 types
  0 angles with 0 types
  0 dihedrals with 0 types
  0 impropers with 0 types
Created 24000 atoms
Created 0 atoms
24000 atoms in group water
0 atoms in group polymer
Setting atom values ...
  24000 settings made for type
WARNING: Resetting reneighboring criteria during minimization (../min.cpp:168)
WARNING: Use special bonds = 0,1,1 with bond style fene (../bond_fene.cpp:188)
Neighbor list info ...
  1 neighbor list requests
  update every 1 steps, delay 0 steps, check yes
  max neighbors/atom: 2000, page size: 100000
  master list distance cutoff = 2
  ghost atom cutoff = 5
  binsize = 1, bins = 20 20 20
Setting up cg style minimization ...
  Unit style: lj
Memory usage per processor = 24.0367 Mbytes
Step Temp E_pair E_mol TotEng Press 
       0            0    7.8441595            0    7.8441595    18.844752 
      36            0    4.2162452            0    4.2162452    16.613297 
Loop time of 2.53415 on 2 procs for 36 steps with 24000 atoms

99.8% CPU use with 2 MPI tasks x no OpenMP threads

Minimization stats:
  Stopping criterion = energy tolerance
  Energy initial, next-to-last, final = 
         7.84415951736      4.21627648972       4.2162452417
  Force two-norm initial, final = 6804.29 4029.97
  Force max component initial, final = 159.709 92.4734
  Final line search alpha, max atom move = 1.50171e-05 0.00138868
  Iterations, force evaluations = 36 122

MPI task timing breakdown:
Section |  min time  |  avg time  |  max time  |%varavg| %total
---------------------------------------------------------------
Pair    | 1.9852     | 2.0297     | 2.0742     |   3.1 | 80.09
Bond    | 9.1314e-05 | 9.5129e-05 | 9.8944e-05 |   0.0 |  0.00
Neigh   | 0.11851    | 0.11854    | 0.11856    |   0.0 |  4.68
Comm    | 0.29442    | 0.33888    | 0.38334    |   7.6 | 13.37
Output  | 0          | 0          | 0          |   0.0 |  0.00
Modify  | 0          | 0          | 0          |   0.0 |  0.00
Other   |            | 0.04695    |            |       |  1.85

Nlocal:    12000 ave 12120 max 11880 min
Histogram: 1 0 0 0 0 0 0 0 0 1
Nghost:    41964 ave 42084 max 41844 min
Histogram: 1 0 0 0 0 0 0 0 0 1
Neighs:    600304 ave 609048 max 591559 min
Histogram: 1 0 0 0 0 0 0 0 0 1

Total # of neighbors = 1200607
Ave neighs/atom = 50.0253
Ave special neighs/atom = 0
Neighbor list builds = 2
Dangerous builds not checked
WARNING: Use special bonds = 0,1,1 with bond style fene (../bond_fene.cpp:188)
Neighbor list info ...
  1 neighbor list requests
  update every 6 steps, delay 0 steps, check no
  max neighbors/atom: 2000, page size: 100000
  master list distance cutoff = 2
  ghost atom cutoff = 5
  binsize = 1, bins = 20 20 20
Setting up Verlet run ...
  Unit style  : lj
  Current step: 36
  Time step   : 0.01
Memory usage per processor = 19.052 Mbytes
Step Temp E_pair E_mol TotEng Press 
      36            0    4.2162452            0    4.2162452    16.711674 
Loop time of 1.90735e-06 on 2 procs for 0 steps with 24000 atoms

0.0% CPU use with 2 MPI tasks x no OpenMP threads

MPI task timing breakdown:
Section |  min time  |  avg time  |  max time  |%varavg| %total
---------------------------------------------------------------
Pair    | 0          | 0          | 0          |   0.0 |  0.00
Bond    | 0          | 0          | 0          |   0.0 |  0.00
Neigh   | 0          | 0          | 0          |   0.0 |  0.00
Comm    | 0          | 0          | 0          |   0.0 |  0.00
Output  | 0          | 0          | 0          |   0.0 |  0.00
Modify  | 0          | 0          | 0          |   0.0 |  0.00
Other   |            | 1.907e-06  |            |       |100.00

Nlocal:    12000 ave 12101 max 11899 min
Histogram: 1 0 0 0 0 0 0 0 0 1
Nghost:    41971 ave 42072 max 41870 min
Histogram: 1 0 0 0 0 0 0 0 0 1
Neighs:    599470 ave 607121 max 591820 min
Histogram: 1 0 0 0 0 0 0 0 0 1

Total # of neighbors = 1198941
Ave neighs/atom = 49.9559
Ave special neighs/atom = 0
Neighbor list builds = 0
Dangerous builds not checked
WARNING: Use special bonds = 0,1,1 with bond style fene (../bond_fene.cpp:188)
Setting up Verlet run ...
  Unit style  : lj
  Current step: 36
  Time step   : 0.005
Memory usage per processor = 19.0672 Mbytes
Step Temp Press Pxy visc vave 
      36   0.44450588    17.950247   0.14274372   -1.4274372            0 
Loop time of 1.90735e-06 on 2 procs for 0 steps with 24000 atoms

0.0% CPU use with 2 MPI tasks x no OpenMP threads

MPI task timing breakdown:
Section |  min time  |  avg time  |  max time  |%varavg| %total
---------------------------------------------------------------
Pair    | 0          | 0          | 0          |   0.0 |  0.00
Bond    | 0          | 0          | 0          |   0.0 |  0.00
Neigh   | 0          | 0          | 0          |   0.0 |  0.00
Comm    | 0          | 0          | 0          |   0.0 |  0.00
Output  | 0          | 0          | 0          |   0.0 |  0.00
Modify  | 0          | 0          | 0          |   0.0 |  0.00
Other   |            | 1.907e-06  |            |       |100.00

Nlocal:    12000 ave 12101 max 11899 min
Histogram: 1 0 0 0 0 0 0 0 0 1
Nghost:    41971 ave 42072 max 41870 min
Histogram: 1 0 0 0 0 0 0 0 0 1
Neighs:    599470 ave 607121 max 591820 min
Histogram: 1 0 0 0 0 0 0 0 0 1

Total # of neighbors = 1198941
Ave neighs/atom = 49.9559
Ave special neighs/atom = 0
Neighbor list builds = 0
Dangerous builds not checked
0000Total wall time: 0:00:02
numProcs 2 nprocs 2
Using all 2 for LAMMPS simulation
LAMMPS (14 May 2016)
fix		shear all deform 1 xy erate 0.010331 remap v flip yes units boxfix		shear all deform 1 xy erate 0.010332 remap v flip yes units boxCreated triclinic box = (0 0 0) to (20 20 20) with tilt (0 0 0)
  1 by 1 by 2 MPI processor grid
Read molecule polymer:
  15 atoms with 2 types
  14 bonds with 3 types
  0 angles with 0 types
  0 dihedrals with 0 types
  0 impropers with 0 types
Created 24000 atoms
Created 0 atoms
24000 atoms in group water
0 atoms in group polymer
Setting atom values ...
  24000 settings made for type
WARNING: Resetting reneighboring criteria during minimization (../min.cpp:168)
WARNING: Use special bonds = 0,1,1 with bond style fene (../bond_fene.cpp:188)
Neighbor list info ...
  1 neighbor list requests
  update every 1 steps, delay 0 steps, check yes
  max neighbors/atom: 2000, page size: 100000
  master list distance cutoff = 2
  ghost atom cutoff = 5
  binsize = 1, bins = 20 20 20
Setting up cg style minimization ...
  Unit style: lj
Memory usage per processor = 24.0367 Mbytes
Step Temp E_pair E_mol TotEng Press 
       0            0    7.8441595            0    7.8441595    18.844752 
      36            0    4.2162452            0    4.2162452    16.613297 
Loop time of 2.43082 on 2 procs for 36 steps with 24000 atoms

99.9% CPU use with 2 MPI tasks x no OpenMP threads

Minimization stats:
  Stopping criterion = energy tolerance
  Energy initial, next-to-last, final = 
         7.84415951736      4.21627648972       4.2162452417
  Force two-norm initial, final = 6804.29 4029.97
  Force max component initial, final = 159.709 92.4734
  Final line search alpha, max atom move = 1.50171e-05 0.00138868
  Iterations, force evaluations = 36 122

MPI task timing breakdown:
Section |  min time  |  avg time  |  max time  |%varavg| %total
---------------------------------------------------------------
Pair    | 1.9175     | 1.9612     | 2.0049     |   3.1 | 80.68
Bond    | 9.2745e-05 | 9.6798e-05 | 0.00010085 |   0.0 |  0.00
Neigh   | 0.10573    | 0.10573    | 0.10574    |   0.0 |  4.35
Comm    | 0.27672    | 0.31989    | 0.36307    |   7.6 | 13.16
Output  | 0          | 0          | 0          |   0.0 |  0.00
Modify  | 0          | 0          | 0          |   0.0 |  0.00
Other   |            | 0.04387    |            |       |  1.80

Nlocal:    12000 ave 12120 max 11880 min
Histogram: 1 0 0 0 0 0 0 0 0 1
Nghost:    41964 ave 42084 max 41844 min
Histogram: 1 0 0 0 0 0 0 0 0 1
Neighs:    600304 ave 609048 max 591559 min
Histogram: 1 0 0 0 0 0 0 0 0 1

Total # of neighbors = 1200607
Ave neighs/atom = 50.0253
Ave special neighs/atom = 0
Neighbor list builds = 2
Dangerous builds not checked
WARNING: Use special bonds = 0,1,1 with bond style fene (../bond_fene.cpp:188)
Neighbor list info ...
  1 neighbor list requests
  update every 6 steps, delay 0 steps, check no
  max neighbors/atom: 2000, page size: 100000
  master list distance cutoff = 2
  ghost atom cutoff = 5
  binsize = 1, bins = 20 20 20
Setting up Verlet run ...
  Unit style  : lj
  Current step: 36
  Time step   : 0.01
Memory usage per processor = 19.052 Mbytes
Step Temp E_pair E_mol TotEng Press 
      36            0    4.2162452            0    4.2162452    16.711674 
Loop time of 2.26498e-06 on 2 procs for 0 steps with 24000 atoms

0.0% CPU use with 2 MPI tasks x no OpenMP threads

MPI task timing breakdown:
Section |  min time  |  avg time  |  max time  |%varavg| %total
---------------------------------------------------------------
Pair    | 0          | 0          | 0          |   0.0 |  0.00
Bond    | 0          | 0          | 0          |   0.0 |  0.00
Neigh   | 0          | 0          | 0          |   0.0 |  0.00
Comm    | 0          | 0          | 0          |   0.0 |  0.00
Output  | 0          | 0          | 0          |   0.0 |  0.00
Modify  | 0          | 0          | 0          |   0.0 |  0.00
Other   |            | 2.265e-06  |            |       |100.00

Nlocal:    12000 ave 12101 max 11899 min
Histogram: 1 0 0 0 0 0 0 0 0 1
Nghost:    41971 ave 42072 max 41870 min
Histogram: 1 0 0 0 0 0 0 0 0 1
Neighs:    599470 ave 607121 max 591820 min
Histogram: 1 0 0 0 0 0 0 0 0 1

Total # of neighbors = 1198941
Ave neighs/atom = 49.9559
Ave special neighs/atom = 0
Neighbor list builds = 0
Dangerous builds not checked
WARNING: Use special bonds = 0,1,1 with bond style fene (../bond_fene.cpp:188)
Setting up Verlet run ...
  Unit style  : lj
  Current step: 36
  Time step   : 0.005
Memory usage per processor = 19.0672 Mbytes
Step Temp Press Pxy visc vave 
      36   0.44450588    17.950247   0.14274372   -1.4274372            0 
Loop time of 2.38419e-06 on 2 procs for 0 steps with 24000 atoms

0.0% CPU use with 2 MPI tasks x no OpenMP threads

MPI task timing breakdown:
Section |  min time  |  avg time  |  max time  |%varavg| %total
---------------------------------------------------------------
Pair    | 0          | 0          | 0          |   0.0 |  0.00
Bond    | 0          | 0          | 0          |   0.0 |  0.00
Neigh   | 0          | 0          | 0          |   0.0 |  0.00
Comm    | 0          | 0          | 0          |   0.0 |  0.00
Output  | 0          | 0          | 0          |   0.0 |  0.00
Modify  | 0          | 0          | 0          |   0.0 |  0.00
Other   |            | 2.384e-06  |            |       |100.00

Nlocal:    12000 ave 12101 max 11899 min
Histogram: 1 0 0 0 0 0 0 0 0 1
Nghost:    41971 ave 42072 max 41870 min
Histogram: 1 0 0 0 0 0 0 0 0 1
Neighs:    599470 ave 607121 max 591820 min
Histogram: 1 0 0 0 0 0 0 0 0 1

Total # of neighbors = 1198941
Ave neighs/atom = 49.9559
Ave special neighs/atom = 0
Neighbor list builds = 0
Dangerous builds not checked
0000Total wall time: 0:00:02
numProcs 2 nprocs 2
Using all 2 for LAMMPS simulation
LAMMPS (14 May 2016)
fix		shear all deform 1 xy erate 0.010334 remap v flip yes units boxfix		shear all deform 1 xy erate 0.010331 remap v flip yes units boxCreated triclinic box = (0 0 0) to (20 20 20) with tilt (0 0 0)
  1 by 1 by 2 MPI processor grid
Read molecule polymer:
  15 atoms with 2 types
  14 bonds with 3 types
  0 angles with 0 types
  0 dihedrals with 0 types
  0 impropers with 0 types
Created 24000 atoms
Created 0 atoms
24000 atoms in group water
0 atoms in group polymer
Setting atom values ...
  24000 settings made for type
WARNING: Resetting reneighboring criteria during minimization (../min.cpp:168)
WARNING: Use special bonds = 0,1,1 with bond style fene (../bond_fene.cpp:188)
Neighbor list info ...
  1 neighbor list requests
  update every 1 steps, delay 0 steps, check yes
  max neighbors/atom: 2000, page size: 100000
  master list distance cutoff = 2
  ghost atom cutoff = 5
  binsize = 1, bins = 20 20 20
Setting up cg style minimization ...
  Unit style: lj
Memory usage per processor = 24.0367 Mbytes
Step Temp E_pair E_mol TotEng Press 
       0            0    7.8441595            0    7.8441595    18.844752 
      36            0    4.2162452            0    4.2162452    16.613297 
Loop time of 2.06104 on 2 procs for 36 steps with 24000 atoms

99.8% CPU use with 2 MPI tasks x no OpenMP threads

Minimization stats:
  Stopping criterion = energy tolerance
  Energy initial, next-to-last, final = 
         7.84415951736      4.21627648972       4.2162452417
  Force two-norm initial, final = 6804.29 4029.97
  Force max component initial, final = 159.709 92.4734
  Final line search alpha, max atom move = 1.50171e-05 0.00138868
  Iterations, force evaluations = 36 122

MPI task timing breakdown:
Section |  min time  |  avg time  |  max time  |%varavg| %total
---------------------------------------------------------------
Pair    | 1.6157     | 1.6439     | 1.6722     |   2.2 | 79.76
Bond    | 8.5115e-05 | 9.0003e-05 | 9.4891e-05 |   0.1 |  0.00
Neigh   | 0.10876    | 0.10876    | 0.10877    |   0.0 |  5.28
Comm    | 0.24235    | 0.26994    | 0.29752    |   5.3 | 13.10
Output  | 0          | 0          | 0          |   0.0 |  0.00
Modify  | 0          | 0          | 0          |   0.0 |  0.00
Other   |            | 0.03833    |            |       |  1.86

Nlocal:    12000 ave 12120 max 11880 min
Histogram: 1 0 0 0 0 0 0 0 0 1
Nghost:    41964 ave 42084 max 41844 min
Histogram: 1 0 0 0 0 0 0 0 0 1
Neighs:    600304 ave 609048 max 591559 min
Histogram: 1 0 0 0 0 0 0 0 0 1

Total # of neighbors = 1200607
Ave neighs/atom = 50.0253
Ave special neighs/atom = 0
Neighbor list builds = 2
Dangerous builds not checked
WARNING: Use special bonds = 0,1,1 with bond style fene (../bond_fene.cpp:188)
Neighbor list info ...
  1 neighbor list requests
  update every 6 steps, delay 0 steps, check no
  max neighbors/atom: 2000, page size: 100000
  master list distance cutoff = 2
  ghost atom cutoff = 5
  binsize = 1, bins = 20 20 20
Setting up Verlet run ...
  Unit style  : lj
  Current step: 36
  Time step   : 0.01
Memory usage per processor = 19.052 Mbytes
Step Temp E_pair E_mol TotEng Press 
      36            0    4.2162452            0    4.2162452    16.711674 
Loop time of 2.02656e-06 on 2 procs for 0 steps with 24000 atoms

0.0% CPU use with 2 MPI tasks x no OpenMP threads

MPI task timing breakdown:
Section |  min time  |  avg time  |  max time  |%varavg| %total
---------------------------------------------------------------
Pair    | 0          | 0          | 0          |   0.0 |  0.00
Bond    | 0          | 0          | 0          |   0.0 |  0.00
Neigh   | 0          | 0          | 0          |   0.0 |  0.00
Comm    | 0          | 0          | 0          |   0.0 |  0.00
Output  | 0          | 0          | 0          |   0.0 |  0.00
Modify  | 0          | 0          | 0          |   0.0 |  0.00
Other   |            | 2.027e-06  |            |       |100.00

Nlocal:    12000 ave 12101 max 11899 min
Histogram: 1 0 0 0 0 0 0 0 0 1
Nghost:    41971 ave 42072 max 41870 min
Histogram: 1 0 0 0 0 0 0 0 0 1
Neighs:    599470 ave 607121 max 591820 min
Histogram: 1 0 0 0 0 0 0 0 0 1

Total # of neighbors = 1198941
Ave neighs/atom = 49.9559
Ave special neighs/atom = 0
Neighbor list builds = 0
Dangerous builds not checked
WARNING: Use special bonds = 0,1,1 with bond style fene (../bond_fene.cpp:188)
Setting up Verlet run ...
  Unit style  : lj
  Current step: 36
  Time step   : 0.005
Memory usage per processor = 19.0672 Mbytes
Step Temp Press Pxy visc vave 
      36   0.44450588    17.950247   0.14274372   -1.4274372            0 
Loop time of 2.38419e-06 on 2 procs for 0 steps with 24000 atoms

0.0% CPU use with 2 MPI tasks x no OpenMP threads

MPI task timing breakdown:
Section |  min time  |  avg time  |  max time  |%varavg| %total
---------------------------------------------------------------
Pair    | 0          | 0          | 0          |   0.0 |  0.00
Bond    | 0          | 0          | 0          |   0.0 |  0.00
Neigh   | 0          | 0          | 0          |   0.0 |  0.00
Comm    | 0          | 0          | 0          |   0.0 |  0.00
Output  | 0          | 0          | 0          |   0.0 |  0.00
Modify  | 0          | 0          | 0          |   0.0 |  0.00
Other   |            | 2.384e-06  |            |       |100.00

Nlocal:    12000 ave 12101 max 11899 min
Histogram: 1 0 0 0 0 0 0 0 0 1
Nghost:    41971 ave 42072 max 41870 min
Histogram: 1 0 0 0 0 0 0 0 0 1
Neighs:    599470 ave 607121 max 591820 min
Histogram: 1 0 0 0 0 0 0 0 0 1

Total # of neighbors = 1198941
Ave neighs/atom = 49.9559
Ave special neighs/atom = 0
Neighbor list builds = 0
Dangerous builds not checked
0000Total wall time: 0:00:02
numProcs 2 nprocs 2
Using all 2 for LAMMPS simulation
LAMMPS (14 May 2016)
fix		shear all deform 1 xy erate 0.010331 remap v flip yes units boxfix		shear all deform 1 xy erate 0.010332 remap v flip yes units boxCreated triclinic box = (0 0 0) to (20 20 20) with tilt (0 0 0)
  1 by 1 by 2 MPI processor grid
Read molecule polymer:
  15 atoms with 2 types
  14 bonds with 3 types
  0 angles with 0 types
  0 dihedrals with 0 types
  0 impropers with 0 types
Created 24000 atoms
Created 0 atoms
24000 atoms in group water
0 atoms in group polymer
Setting atom values ...
  24000 settings made for type
WARNING: Resetting reneighboring criteria during minimization (../min.cpp:168)
WARNING: Use special bonds = 0,1,1 with bond style fene (../bond_fene.cpp:188)
Neighbor list info ...
  1 neighbor list requests
  update every 1 steps, delay 0 steps, check yes
  max neighbors/atom: 2000, page size: 100000
  master list distance cutoff = 2
  ghost atom cutoff = 5
  binsize = 1, bins = 20 20 20
Setting up cg style minimization ...
  Unit style: lj
Memory usage per processor = 24.0367 Mbytes
Step Temp E_pair E_mol TotEng Press 
       0            0    7.8441595            0    7.8441595    18.844752 
      36            0    4.2162452            0    4.2162452    16.613297 
Loop time of 2.01593 on 2 procs for 36 steps with 24000 atoms

100.0% CPU use with 2 MPI tasks x no OpenMP threads

Minimization stats:
  Stopping criterion = energy tolerance
  Energy initial, next-to-last, final = 
         7.84415951736      4.21627648972       4.2162452417
  Force two-norm initial, final = 6804.29 4029.97
  Force max component initial, final = 159.709 92.4734
  Final line search alpha, max atom move = 1.50171e-05 0.00138868
  Iterations, force evaluations = 36 122

MPI task timing breakdown:
Section |  min time  |  avg time  |  max time  |%varavg| %total
---------------------------------------------------------------
Pair    | 1.5687     | 1.6007     | 1.6327     |   2.5 | 79.40
Bond    | 9.3222e-05 | 0.00010204 | 0.00011086 |   0.1 |  0.01
Neigh   | 0.097931   | 0.097937   | 0.097943   |   0.0 |  4.86
Comm    | 0.24753    | 0.27885    | 0.31017    |   5.9 | 13.83
Output  | 0          | 0          | 0          |   0.0 |  0.00
Modify  | 0          | 0          | 0          |   0.0 |  0.00
Other   |            | 0.03833    |            |       |  1.90

Nlocal:    12000 ave 12120 max 11880 min
Histogram: 1 0 0 0 0 0 0 0 0 1
Nghost:    41964 ave 42084 max 41844 min
Histogram: 1 0 0 0 0 0 0 0 0 1
Neighs:    600304 ave 609048 max 591559 min
Histogram: 1 0 0 0 0 0 0 0 0 1

Total # of neighbors = 1200607
Ave neighs/atom = 50.0253
Ave special neighs/atom = 0
Neighbor list builds = 2
Dangerous builds not checked
WARNING: Use special bonds = 0,1,1 with bond style fene (../bond_fene.cpp:188)
Neighbor list info ...
  1 neighbor list requests
  update every 6 steps, delay 0 steps, check no
  max neighbors/atom: 2000, page size: 100000
  master list distance cutoff = 2
  ghost atom cutoff = 5
  binsize = 1, bins = 20 20 20
Setting up Verlet run ...
  Unit style  : lj
  Current step: 36
  Time step   : 0.01
Memory usage per processor = 19.052 Mbytes
Step Temp E_pair E_mol TotEng Press 
      36            0    4.2162452            0    4.2162452    16.711674 
Loop time of 1.78814e-06 on 2 procs for 0 steps with 24000 atoms

0.0% CPU use with 2 MPI tasks x no OpenMP threads

MPI task timing breakdown:
Section |  min time  |  avg time  |  max time  |%varavg| %total
---------------------------------------------------------------
Pair    | 0          | 0          | 0          |   0.0 |  0.00
Bond    | 0          | 0          | 0          |   0.0 |  0.00
Neigh   | 0          | 0          | 0          |   0.0 |  0.00
Comm    | 0          | 0          | 0          |   0.0 |  0.00
Output  | 0          | 0          | 0          |   0.0 |  0.00
Modify  | 0          | 0          | 0          |   0.0 |  0.00
Other   |            | 1.788e-06  |            |       |100.00

Nlocal:    12000 ave 12101 max 11899 min
Histogram: 1 0 0 0 0 0 0 0 0 1
Nghost:    41971 ave 42072 max 41870 min
Histogram: 1 0 0 0 0 0 0 0 0 1
Neighs:    599470 ave 607121 max 591820 min
Histogram: 1 0 0 0 0 0 0 0 0 1

Total # of neighbors = 1198941
Ave neighs/atom = 49.9559
Ave special neighs/atom = 0
Neighbor list builds = 0
Dangerous builds not checked
WARNING: Use special bonds = 0,1,1 with bond style fene (../bond_fene.cpp:188)
Setting up Verlet run ...
  Unit style  : lj
  Current step: 36
  Time step   : 0.005
Memory usage per processor = 19.0672 Mbytes
Step Temp Press Pxy visc vave 
      36   0.44450588    17.950247   0.14274372   -1.4274372            0 
Loop time of 1.78814e-06 on 2 procs for 0 steps with 24000 atoms

0.0% CPU use with 2 MPI tasks x no OpenMP threads

MPI task timing breakdown:
Section |  min time  |  avg time  |  max time  |%varavg| %total
---------------------------------------------------------------
Pair    | 0          | 0          | 0          |   0.0 |  0.00
Bond    | 0          | 0          | 0          |   0.0 |  0.00
Neigh   | 0          | 0          | 0          |   0.0 |  0.00
Comm    | 0          | 0          | 0          |   0.0 |  0.00
Output  | 0          | 0          | 0          |   0.0 |  0.00
Modify  | 0          | 0          | 0          |   0.0 |  0.00
Other   |            | 1.788e-06  |            |       |100.00

Nlocal:    12000 ave 12101 max 11899 min
Histogram: 1 0 0 0 0 0 0 0 0 1
Nghost:    41971 ave 42072 max 41870 min
Histogram: 1 0 0 0 0 0 0 0 0 1
Neighs:    599470 ave 607121 max 591820 min
Histogram: 1 0 0 0 0 0 0 0 0 1

Total # of neighbors = 1198941
Ave neighs/atom = 49.9559
Ave special neighs/atom = 0
Neighbor list builds = 0
Dangerous builds not checked
0000Total wall time: 0:00:02
numProcs 2 nprocs 2
Using all 2 for LAMMPS simulation
LAMMPS (14 May 2016)
fix		shear all deform 1 xy erate 0.010332 remap v flip yes units boxfix		shear all deform 1 xy erate 0.010332 remap v flip yes units boxCreated triclinic box = (0 0 0) to (20 20 20) with tilt (0 0 0)
  1 by 1 by 2 MPI processor grid
Read molecule polymer:
  15 atoms with 2 types
  14 bonds with 3 types
  0 angles with 0 types
  0 dihedrals with 0 types
  0 impropers with 0 types
Created 24000 atoms
Created 0 atoms
24000 atoms in group water
0 atoms in group polymer
Setting atom values ...
  24000 settings made for type
WARNING: Resetting reneighboring criteria during minimization (../min.cpp:168)
WARNING: Use special bonds = 0,1,1 with bond style fene (../bond_fene.cpp:188)
Neighbor list info ...
  1 neighbor list requests
  update every 1 steps, delay 0 steps, check yes
  max neighbors/atom: 2000, page size: 100000
  master list distance cutoff = 2
  ghost atom cutoff = 5
  binsize = 1, bins = 20 20 20
Setting up cg style minimization ...
  Unit style: lj
Memory usage per processor = 24.0367 Mbytes
Step Temp E_pair E_mol TotEng Press 
       0            0    7.8441595            0    7.8441595    18.844752 
      36            0    4.2162452            0    4.2162452    16.613297 
Loop time of 2.04691 on 2 procs for 36 steps with 24000 atoms

100.1% CPU use with 2 MPI tasks x no OpenMP threads

Minimization stats:
  Stopping criterion = energy tolerance
  Energy initial, next-to-last, final = 
         7.84415951736      4.21627648972       4.2162452417
  Force two-norm initial, final = 6804.29 4029.97
  Force max component initial, final = 159.709 92.4734
  Final line search alpha, max atom move = 1.50171e-05 0.00138868
  Iterations, force evaluations = 36 122

MPI task timing breakdown:
Section |  min time  |  avg time  |  max time  |%varavg| %total
---------------------------------------------------------------
Pair    | 1.6098     | 1.6359     | 1.662      |   2.0 | 79.92
Bond    | 7.4148e-05 | 0.00010037 | 0.0001266  |   0.3 |  0.00
Neigh   | 0.097947   | 0.097947   | 0.097948   |   0.0 |  4.79
Comm    | 0.24899    | 0.27451    | 0.30004    |   4.9 | 13.41
Output  | 0          | 0          | 0          |   0.0 |  0.00
Modify  | 0          | 0          | 0          |   0.0 |  0.00
Other   |            | 0.03841    |            |       |  1.88

Nlocal:    12000 ave 12120 max 11880 min
Histogram: 1 0 0 0 0 0 0 0 0 1
Nghost:    41964 ave 42084 max 41844 min
Histogram: 1 0 0 0 0 0 0 0 0 1
Neighs:    600304 ave 609048 max 591559 min
Histogram: 1 0 0 0 0 0 0 0 0 1

Total # of neighbors = 1200607
Ave neighs/atom = 50.0253
Ave special neighs/atom = 0
Neighbor list builds = 2
Dangerous builds not checked
WARNING: Use special bonds = 0,1,1 with bond style fene (../bond_fene.cpp:188)
Neighbor list info ...
  1 neighbor list requests
  update every 6 steps, delay 0 steps, check no
  max neighbors/atom: 2000, page size: 100000
  master list distance cutoff = 2
  ghost atom cutoff = 5
  binsize = 1, bins = 20 20 20
Setting up Verlet run ...
  Unit style  : lj
  Current step: 36
  Time step   : 0.01
Memory usage per processor = 19.052 Mbytes
Step Temp E_pair E_mol TotEng Press 
      36            0    4.2162452            0    4.2162452    16.711674 
Loop time of 1.54972e-06 on 2 procs for 0 steps with 24000 atoms

0.0% CPU use with 2 MPI tasks x no OpenMP threads

MPI task timing breakdown:
Section |  min time  |  avg time  |  max time  |%varavg| %total
---------------------------------------------------------------
Pair    | 0          | 0          | 0          |   0.0 |  0.00
Bond    | 0          | 0          | 0          |   0.0 |  0.00
Neigh   | 0          | 0          | 0          |   0.0 |  0.00
Comm    | 0          | 0          | 0          |   0.0 |  0.00
Output  | 0          | 0          | 0          |   0.0 |  0.00
Modify  | 0          | 0          | 0          |   0.0 |  0.00
Other   |            | 1.55e-06   |            |       |100.00

Nlocal:    12000 ave 12101 max 11899 min
Histogram: 1 0 0 0 0 0 0 0 0 1
Nghost:    41971 ave 42072 max 41870 min
Histogram: 1 0 0 0 0 0 0 0 0 1
Neighs:    599470 ave 607121 max 591820 min
Histogram: 1 0 0 0 0 0 0 0 0 1

Total # of neighbors = 1198941
Ave neighs/atom = 49.9559
Ave special neighs/atom = 0
Neighbor list builds = 0
Dangerous builds not checked
WARNING: Use special bonds = 0,1,1 with bond style fene (../bond_fene.cpp:188)
Setting up Verlet run ...
  Unit style  : lj
  Current step: 36
  Time step   : 0.005
Memory usage per processor = 19.0672 Mbytes
Step Temp Press Pxy visc vave 
      36   0.44450588    17.950247   0.14274372   -1.4274372            0 
Loop time of 1.43051e-06 on 2 procs for 0 steps with 24000 atoms

0.0% CPU use with 2 MPI tasks x no OpenMP threads

MPI task timing breakdown:
Section |  min time  |  avg time  |  max time  |%varavg| %total
---------------------------------------------------------------
Pair    | 0          | 0          | 0          |   0.0 |  0.00
Bond    | 0          | 0          | 0          |   0.0 |  0.00
Neigh   | 0          | 0          | 0          |   0.0 |  0.00
Comm    | 0          | 0          | 0          |   0.0 |  0.00
Output  | 0          | 0          | 0          |   0.0 |  0.00
Modify  | 0          | 0          | 0          |   0.0 |  0.00
Other   |            | 1.431e-06  |            |       |100.00

Nlocal:    12000 ave 12101 max 11899 min
Histogram: 1 0 0 0 0 0 0 0 0 1
Nghost:    41971 ave 42072 max 41870 min
Histogram: 1 0 0 0 0 0 0 0 0 1
Neighs:    599470 ave 607121 max 591820 min
Histogram: 1 0 0 0 0 0 0 0 0 1

Total # of neighbors = 1198941
Ave neighs/atom = 49.9559
Ave special neighs/atom = 0
Neighbor list builds = 0
Dangerous builds not checked
0000Total wall time: 0:00:02
numProcs 2 nprocs 2
Using all 2 for LAMMPS simulation
LAMMPS (14 May 2016)
fix		shear all deform 1 xy erate 0.031033 remap v flip yes units boxfix		shear all deform 1 xy erate 0.030962 remap v flip yes units boxCreated triclinic box = (0 0 0) to (20 20 20) with tilt (0 0 0)
  1 by 1 by 2 MPI processor grid
Read molecule polymer:
  15 atoms with 2 types
  14 bonds with 3 types
  0 angles with 0 types
  0 dihedrals with 0 types
  0 impropers with 0 types
Created 24000 atoms
Created 0 atoms
24000 atoms in group water
0 atoms in group polymer
Setting atom values ...
  24000 settings made for type
WARNING: Resetting reneighboring criteria during minimization (../min.cpp:168)
WARNING: Use special bonds = 0,1,1 with bond style fene (../bond_fene.cpp:188)
Neighbor list info ...
  1 neighbor list requests
  update every 1 steps, delay 0 steps, check yes
  max neighbors/atom: 2000, page size: 100000
  master list distance cutoff = 2
  ghost atom cutoff = 5
  binsize = 1, bins = 20 20 20
Setting up cg style minimization ...
  Unit style: lj
Memory usage per processor = 24.0367 Mbytes
Step Temp E_pair E_mol TotEng Press 
       0            0    7.8441595            0    7.8441595    18.844752 
      36            0    4.2162452            0    4.2162452    16.613297 
Loop time of 1.97486 on 2 procs for 36 steps with 24000 atoms

100.0% CPU use with 2 MPI tasks x no OpenMP threads

Minimization stats:
  Stopping criterion = energy tolerance
  Energy initial, next-to-last, final = 
         7.84415951736      4.21627648972       4.2162452417
  Force two-norm initial, final = 6804.29 4029.97
  Force max component initial, final = 159.709 92.4734
  Final line search alpha, max atom move = 1.50171e-05 0.00138868
  Iterations, force evaluations = 36 122

MPI task timing breakdown:
Section |  min time  |  avg time  |  max time  |%varavg| %total
---------------------------------------------------------------
Pair    | 1.5556     | 1.5788     | 1.6019     |   1.8 | 79.94
Bond    | 7.6056e-05 | 8.0466e-05 | 8.4877e-05 |   0.0 |  0.00
Neigh   | 0.097617   | 0.097617   | 0.097618   |   0.0 |  4.94
Comm    | 0.2385     | 0.261      | 0.2835     |   4.4 | 13.22
Output  | 0          | 0          | 0          |   0.0 |  0.00
Modify  | 0          | 0          | 0          |   0.0 |  0.00
Other   |            | 0.0374     |            |       |  1.89

Nlocal:    12000 ave 12120 max 11880 min
Histogram: 1 0 0 0 0 0 0 0 0 1
Nghost:    41964 ave 42084 max 41844 min
Histogram: 1 0 0 0 0 0 0 0 0 1
Neighs:    600304 ave 609048 max 591559 min
Histogram: 1 0 0 0 0 0 0 0 0 1

Total # of neighbors = 1200607
Ave neighs/atom = 50.0253
Ave special neighs/atom = 0
Neighbor list builds = 2
Dangerous builds not checked
WARNING: Use special bonds = 0,1,1 with bond style fene (../bond_fene.cpp:188)
Neighbor list info ...
  1 neighbor list requests
  update every 6 steps, delay 0 steps, check no
  max neighbors/atom: 2000, page size: 100000
  master list distance cutoff = 2
  ghost atom cutoff = 5
  binsize = 1, bins = 20 20 20
Setting up Verlet run ...
  Unit style  : lj
  Current step: 36
  Time step   : 0.01
Memory usage per processor = 19.052 Mbytes
Step Temp E_pair E_mol TotEng Press 
      36            0    4.2162452            0    4.2162452    16.711674 
Loop time of 1.54972e-06 on 2 procs for 0 steps with 24000 atoms

0.0% CPU use with 2 MPI tasks x no OpenMP threads

MPI task timing breakdown:
Section |  min time  |  avg time  |  max time  |%varavg| %total
---------------------------------------------------------------
Pair    | 0          | 0          | 0          |   0.0 |  0.00
Bond    | 0          | 0          | 0          |   0.0 |  0.00
Neigh   | 0          | 0          | 0          |   0.0 |  0.00
Comm    | 0          | 0          | 0          |   0.0 |  0.00
Output  | 0          | 0          | 0          |   0.0 |  0.00
Modify  | 0          | 0          | 0          |   0.0 |  0.00
Other   |            | 1.55e-06   |            |       |100.00

Nlocal:    12000 ave 12101 max 11899 min
Histogram: 1 0 0 0 0 0 0 0 0 1
Nghost:    41971 ave 42072 max 41870 min
Histogram: 1 0 0 0 0 0 0 0 0 1
Neighs:    599470 ave 607121 max 591820 min
Histogram: 1 0 0 0 0 0 0 0 0 1

Total # of neighbors = 1198941
Ave neighs/atom = 49.9559
Ave special neighs/atom = 0
Neighbor list builds = 0
Dangerous builds not checked
WARNING: Use special bonds = 0,1,1 with bond style fene (../bond_fene.cpp:188)
Setting up Verlet run ...
  Unit style  : lj
  Current step: 36
  Time step   : 0.005
Memory usage per processor = 19.0672 Mbytes
Step Temp Press Pxy visc vave 
      36   0.44450588    17.950247   0.14274372   -1.4274372            0 
Loop time of 1.54972e-06 on 2 procs for 0 steps with 24000 atoms

0.0% CPU use with 2 MPI tasks x no OpenMP threads

MPI task timing breakdown:
Section |  min time  |  avg time  |  max time  |%varavg| %total
---------------------------------------------------------------
Pair    | 0          | 0          | 0          |   0.0 |  0.00
Bond    | 0          | 0          | 0          |   0.0 |  0.00
Neigh   | 0          | 0          | 0          |   0.0 |  0.00
Comm    | 0          | 0          | 0          |   0.0 |  0.00
Output  | 0          | 0          | 0          |   0.0 |  0.00
Modify  | 0          | 0          | 0          |   0.0 |  0.00
Other   |            | 1.55e-06   |            |       |100.00

Nlocal:    12000 ave 12101 max 11899 min
Histogram: 1 0 0 0 0 0 0 0 0 1
Nghost:    41971 ave 42072 max 41870 min
Histogram: 1 0 0 0 0 0 0 0 0 1
Neighs:    599470 ave 607121 max 591820 min
Histogram: 1 0 0 0 0 0 0 0 0 1

Total # of neighbors = 1198941
Ave neighs/atom = 49.9559
Ave special neighs/atom = 0
Neighbor list builds = 0
Dangerous builds not checked
0000Total wall time: 0:00:02
numProcs 2 nprocs 2
Using all 2 for LAMMPS simulation
LAMMPS (14 May 2016)
fix		shear all deform 1 xy erate 0.030960 remap v flip yes units boxfix		shear all deform 1 xy erate 0.030964 remap v flip yes units boxCreated triclinic box = (0 0 0) to (20 20 20) with tilt (0 0 0)
  1 by 1 by 2 MPI processor grid
Read molecule polymer:
  15 atoms with 2 types
  14 bonds with 3 types
  0 angles with 0 types
  0 dihedrals with 0 types
  0 impropers with 0 types
Created 24000 atoms
Created 0 atoms
24000 atoms in group water
0 atoms in group polymer
Setting atom values ...
  24000 settings made for type
WARNING: Resetting reneighboring criteria during minimization (../min.cpp:168)
WARNING: Use special bonds = 0,1,1 with bond style fene (../bond_fene.cpp:188)
Neighbor list info ...
  1 neighbor list requests
  update every 1 steps, delay 0 steps, check yes
  max neighbors/atom: 2000, page size: 100000
  master list distance cutoff = 2
  ghost atom cutoff = 5
  binsize = 1, bins = 20 20 20
Setting up cg style minimization ...
  Unit style: lj
Memory usage per processor = 24.0367 Mbytes
Step Temp E_pair E_mol TotEng Press 
       0            0    7.8441595            0    7.8441595    18.844752 
      36            0    4.2162452            0    4.2162452    16.613297 
Loop time of 1.95859 on 2 procs for 36 steps with 24000 atoms

99.9% CPU use with 2 MPI tasks x no OpenMP threads

Minimization stats:
  Stopping criterion = energy tolerance
  Energy initial, next-to-last, final = 
         7.84415951736      4.21627648972       4.2162452417
  Force two-norm initial, final = 6804.29 4029.97
  Force max component initial, final = 159.709 92.4734
  Final line search alpha, max atom move = 1.50171e-05 0.00138868
  Iterations, force evaluations = 36 122

MPI task timing breakdown:
Section |  min time  |  avg time  |  max time  |%varavg| %total
---------------------------------------------------------------
Pair    | 1.5344     | 1.5607     | 1.5871     |   2.1 | 79.69
Bond    | 7.8678e-05 | 9.0122e-05 | 0.00010157 |   0.1 |  0.00
Neigh   | 0.098462   | 0.098464   | 0.098467   |   0.0 |  5.03
Comm    | 0.23586    | 0.26141    | 0.28696    |   5.0 | 13.35
Output  | 0          | 0          | 0          |   0.0 |  0.00
Modify  | 0          | 0          | 0          |   0.0 |  0.00
Other   |            | 0.03789    |            |       |  1.93

Nlocal:    12000 ave 12120 max 11880 min
Histogram: 1 0 0 0 0 0 0 0 0 1
Nghost:    41964 ave 42084 max 41844 min
Histogram: 1 0 0 0 0 0 0 0 0 1
Neighs:    600304 ave 609048 max 591559 min
Histogram: 1 0 0 0 0 0 0 0 0 1

Total # of neighbors = 1200607
Ave neighs/atom = 50.0253
Ave special neighs/atom = 0
Neighbor list builds = 2
Dangerous builds not checked
WARNING: Use special bonds = 0,1,1 with bond style fene (../bond_fene.cpp:188)
Neighbor list info ...
  1 neighbor list requests
  update every 6 steps, delay 0 steps, check no
  max neighbors/atom: 2000, page size: 100000
  master list distance cutoff = 2
  ghost atom cutoff = 5
  binsize = 1, bins = 20 20 20
Setting up Verlet run ...
  Unit style  : lj
  Current step: 36
  Time step   : 0.01
Memory usage per processor = 19.052 Mbytes
Step Temp E_pair E_mol TotEng Press 
      36            0    4.2162452            0    4.2162452    16.711674 
Loop time of 2.02656e-06 on 2 procs for 0 steps with 24000 atoms

0.0% CPU use with 2 MPI tasks x no OpenMP threads

MPI task timing breakdown:
Section |  min time  |  avg time  |  max time  |%varavg| %total
---------------------------------------------------------------
Pair    | 0          | 0          | 0          |   0.0 |  0.00
Bond    | 0          | 0          | 0          |   0.0 |  0.00
Neigh   | 0          | 0          | 0          |   0.0 |  0.00
Comm    | 0          | 0          | 0          |   0.0 |  0.00
Output  | 0          | 0          | 0          |   0.0 |  0.00
Modify  | 0          | 0          | 0          |   0.0 |  0.00
Other   |            | 2.027e-06  |            |       |100.00

Nlocal:    12000 ave 12101 max 11899 min
Histogram: 1 0 0 0 0 0 0 0 0 1
Nghost:    41971 ave 42072 max 41870 min
Histogram: 1 0 0 0 0 0 0 0 0 1
Neighs:    599470 ave 607121 max 591820 min
Histogram: 1 0 0 0 0 0 0 0 0 1

Total # of neighbors = 1198941
Ave neighs/atom = 49.9559
Ave special neighs/atom = 0
Neighbor list builds = 0
Dangerous builds not checked
WARNING: Use special bonds = 0,1,1 with bond style fene (../bond_fene.cpp:188)
Setting up Verlet run ...
  Unit style  : lj
  Current step: 36
  Time step   : 0.005
Memory usage per processor = 19.0672 Mbytes
Step Temp Press Pxy visc vave 
      36   0.44450588    17.950247   0.14274372   -1.4274372            0 
Loop time of 2.02656e-06 on 2 procs for 0 steps with 24000 atoms

0.0% CPU use with 2 MPI tasks x no OpenMP threads

MPI task timing breakdown:
Section |  min time  |  avg time  |  max time  |%varavg| %total
---------------------------------------------------------------
Pair    | 0          | 0          | 0          |   0.0 |  0.00
Bond    | 0          | 0          | 0          |   0.0 |  0.00
Neigh   | 0          | 0          | 0          |   0.0 |  0.00
Comm    | 0          | 0          | 0          |   0.0 |  0.00
Output  | 0          | 0          | 0          |   0.0 |  0.00
Modify  | 0          | 0          | 0          |   0.0 |  0.00
Other   |            | 2.027e-06  |            |       |100.00

Nlocal:    12000 ave 12101 max 11899 min
Histogram: 1 0 0 0 0 0 0 0 0 1
Nghost:    41971 ave 42072 max 41870 min
Histogram: 1 0 0 0 0 0 0 0 0 1
Neighs:    599470 ave 607121 max 591820 min
Histogram: 1 0 0 0 0 0 0 0 0 1

Total # of neighbors = 1198941
Ave neighs/atom = 49.9559
Ave special neighs/atom = 0
Neighbor list builds = 0
Dangerous builds not checked
0000Total wall time: 0:00:02
numProcs 2 nprocs 2
Using all 2 for LAMMPS simulation
LAMMPS (14 May 2016)
fix		shear all deform 1 xy erate 0.030970 remap v flip yes units boxfix		shear all deform 1 xy erate 0.030963 remap v flip yes units boxCreated triclinic box = (0 0 0) to (20 20 20) with tilt (0 0 0)
  1 by 1 by 2 MPI processor grid
Read molecule polymer:
  15 atoms with 2 types
  14 bonds with 3 types
  0 angles with 0 types
  0 dihedrals with 0 types
  0 impropers with 0 types
Created 24000 atoms
Created 0 atoms
24000 atoms in group water
0 atoms in group polymer
Setting atom values ...
  24000 settings made for type
WARNING: Resetting reneighboring criteria during minimization (../min.cpp:168)
WARNING: Use special bonds = 0,1,1 with bond style fene (../bond_fene.cpp:188)
Neighbor list info ...
  1 neighbor list requests
  update every 1 steps, delay 0 steps, check yes
  max neighbors/atom: 2000, page size: 100000
  master list distance cutoff = 2
  ghost atom cutoff = 5
  binsize = 1, bins = 20 20 20
Setting up cg style minimization ...
  Unit style: lj
Memory usage per processor = 24.0367 Mbytes
Step Temp E_pair E_mol TotEng Press 
       0            0    7.8441595            0    7.8441595    18.844752 
      36            0    4.2162452            0    4.2162452    16.613297 
Loop time of 1.9755 on 2 procs for 36 steps with 24000 atoms

99.9% CPU use with 2 MPI tasks x no OpenMP threads

Minimization stats:
  Stopping criterion = energy tolerance
  Energy initial, next-to-last, final = 
         7.84415951736      4.21627648972       4.2162452417
  Force two-norm initial, final = 6804.29 4029.97
  Force max component initial, final = 159.709 92.4734
  Final line search alpha, max atom move = 1.50171e-05 0.00138868
  Iterations, force evaluations = 36 122

MPI task timing breakdown:
Section |  min time  |  avg time  |  max time  |%varavg| %total
---------------------------------------------------------------
Pair    | 1.5505     | 1.5778     | 1.6051     |   2.2 | 79.87
Bond    | 7.391e-05  | 8.142e-05  | 8.893e-05  |   0.1 |  0.00
Neigh   | 0.096497   | 0.09652    | 0.096543   |   0.0 |  4.89
Comm    | 0.23736    | 0.2641     | 0.29084    |   5.2 | 13.37
Output  | 0          | 0          | 0          |   0.0 |  0.00
Modify  | 0          | 0          | 0          |   0.0 |  0.00
Other   |            | 0.037      |            |       |  1.87

Nlocal:    12000 ave 12120 max 11880 min
Histogram: 1 0 0 0 0 0 0 0 0 1
Nghost:    41964 ave 42084 max 41844 min
Histogram: 1 0 0 0 0 0 0 0 0 1
Neighs:    600304 ave 609048 max 591559 min
Histogram: 1 0 0 0 0 0 0 0 0 1

Total # of neighbors = 1200607
Ave neighs/atom = 50.0253
Ave special neighs/atom = 0
Neighbor list builds = 2
Dangerous builds not checked
WARNING: Use special bonds = 0,1,1 with bond style fene (../bond_fene.cpp:188)
Neighbor list info ...
  1 neighbor list requests
  update every 6 steps, delay 0 steps, check no
  max neighbors/atom: 2000, page size: 100000
  master list distance cutoff = 2
  ghost atom cutoff = 5
  binsize = 1, bins = 20 20 20
Setting up Verlet run ...
  Unit style  : lj
  Current step: 36
  Time step   : 0.01
Memory usage per processor = 19.052 Mbytes
Step Temp E_pair E_mol TotEng Press 
      36            0    4.2162452            0    4.2162452    16.711674 
Loop time of 1.78814e-06 on 2 procs for 0 steps with 24000 atoms

0.0% CPU use with 2 MPI tasks x no OpenMP threads

MPI task timing breakdown:
Section |  min time  |  avg time  |  max time  |%varavg| %total
---------------------------------------------------------------
Pair    | 0          | 0          | 0          |   0.0 |  0.00
Bond    | 0          | 0          | 0          |   0.0 |  0.00
Neigh   | 0          | 0          | 0          |   0.0 |  0.00
Comm    | 0          | 0          | 0          |   0.0 |  0.00
Output  | 0          | 0          | 0          |   0.0 |  0.00
Modify  | 0          | 0          | 0          |   0.0 |  0.00
Other   |            | 1.788e-06  |            |       |100.00

Nlocal:    12000 ave 12101 max 11899 min
Histogram: 1 0 0 0 0 0 0 0 0 1
Nghost:    41971 ave 42072 max 41870 min
Histogram: 1 0 0 0 0 0 0 0 0 1
Neighs:    599470 ave 607121 max 591820 min
Histogram: 1 0 0 0 0 0 0 0 0 1

Total # of neighbors = 1198941
Ave neighs/atom = 49.9559
Ave special neighs/atom = 0
Neighbor list builds = 0
Dangerous builds not checked
WARNING: Use special bonds = 0,1,1 with bond style fene (../bond_fene.cpp:188)
Setting up Verlet run ...
  Unit style  : lj
  Current step: 36
  Time step   : 0.005
Memory usage per processor = 19.0672 Mbytes
Step Temp Press Pxy visc vave 
      36   0.44450588    17.950247   0.14274372   -1.4274372            0 
Loop time of 1.43051e-06 on 2 procs for 0 steps with 24000 atoms

0.0% CPU use with 2 MPI tasks x no OpenMP threads

MPI task timing breakdown:
Section |  min time  |  avg time  |  max time  |%varavg| %total
---------------------------------------------------------------
Pair    | 0          | 0          | 0          |   0.0 |  0.00
Bond    | 0          | 0          | 0          |   0.0 |  0.00
Neigh   | 0          | 0          | 0          |   0.0 |  0.00
Comm    | 0          | 0          | 0          |   0.0 |  0.00
Output  | 0          | 0          | 0          |   0.0 |  0.00
Modify  | 0          | 0          | 0          |   0.0 |  0.00
Other   |            | 1.431e-06  |            |       |100.00

Nlocal:    12000 ave 12101 max 11899 min
Histogram: 1 0 0 0 0 0 0 0 0 1
Nghost:    41971 ave 42072 max 41870 min
Histogram: 1 0 0 0 0 0 0 0 0 1
Neighs:    599470 ave 607121 max 591820 min
Histogram: 1 0 0 0 0 0 0 0 0 1

Total # of neighbors = 1198941
Ave neighs/atom = 49.9559
Ave special neighs/atom = 0
Neighbor list builds = 0
Dangerous builds not checked
0000Total wall time: 0:00:02
numProcs 2 nprocs 2
Using all 2 for LAMMPS simulation
LAMMPS (14 May 2016)
fix		shear all deform 1 xy erate 0.030960 remap v flip yes units boxfix		shear all deform 1 xy erate 0.030964 remap v flip yes units boxCreated triclinic box = (0 0 0) to (20 20 20) with tilt (0 0 0)
  1 by 1 by 2 MPI processor grid
Read molecule polymer:
  15 atoms with 2 types
  14 bonds with 3 types
  0 angles with 0 types
  0 dihedrals with 0 types
  0 impropers with 0 types
Created 24000 atoms
Created 0 atoms
24000 atoms in group water
0 atoms in group polymer
Setting atom values ...
  24000 settings made for type
WARNING: Resetting reneighboring criteria during minimization (../min.cpp:168)
WARNING: Use special bonds = 0,1,1 with bond style fene (../bond_fene.cpp:188)
Neighbor list info ...
  1 neighbor list requests
  update every 1 steps, delay 0 steps, check yes
  max neighbors/atom: 2000, page size: 100000
  master list distance cutoff = 2
  ghost atom cutoff = 5
  binsize = 1, bins = 20 20 20
Setting up cg style minimization ...
  Unit style: lj
Memory usage per processor = 24.0367 Mbytes
Step Temp E_pair E_mol TotEng Press 
       0            0    7.8441595            0    7.8441595    18.844752 
      36            0    4.2162452            0    4.2162452    16.613297 
Loop time of 2.01004 on 2 procs for 36 steps with 24000 atoms

99.9% CPU use with 2 MPI tasks x no OpenMP threads

Minimization stats:
  Stopping criterion = energy tolerance
  Energy initial, next-to-last, final = 
         7.84415951736      4.21627648972       4.2162452417
  Force two-norm initial, final = 6804.29 4029.97
  Force max component initial, final = 159.709 92.4734
  Final line search alpha, max atom move = 1.50171e-05 0.00138868
  Iterations, force evaluations = 36 122

MPI task timing breakdown:
Section |  min time  |  avg time  |  max time  |%varavg| %total
---------------------------------------------------------------
Pair    | 1.5878     | 1.6125     | 1.6371     |   1.9 | 80.22
Bond    | 9.5367e-05 | 9.6679e-05 | 9.799e-05  |   0.0 |  0.00
Neigh   | 0.09771    | 0.097717   | 0.097723   |   0.0 |  4.86
Comm    | 0.23808    | 0.26212    | 0.28617    |   4.7 | 13.04
Output  | 0          | 0          | 0          |   0.0 |  0.00
Modify  | 0          | 0          | 0          |   0.0 |  0.00
Other   |            | 0.03765    |            |       |  1.87

Nlocal:    12000 ave 12120 max 11880 min
Histogram: 1 0 0 0 0 0 0 0 0 1
Nghost:    41964 ave 42084 max 41844 min
Histogram: 1 0 0 0 0 0 0 0 0 1
Neighs:    600304 ave 609048 max 591559 min
Histogram: 1 0 0 0 0 0 0 0 0 1

Total # of neighbors = 1200607
Ave neighs/atom = 50.0253
Ave special neighs/atom = 0
Neighbor list builds = 2
Dangerous builds not checked
WARNING: Use special bonds = 0,1,1 with bond style fene (../bond_fene.cpp:188)
Neighbor list info ...
  1 neighbor list requests
  update every 6 steps, delay 0 steps, check no
  max neighbors/atom: 2000, page size: 100000
  master list distance cutoff = 2
  ghost atom cutoff = 5
  binsize = 1, bins = 20 20 20
Setting up Verlet run ...
  Unit style  : lj
  Current step: 36
  Time step   : 0.01
Memory usage per processor = 19.052 Mbytes
Step Temp E_pair E_mol TotEng Press 
      36            0    4.2162452            0    4.2162452    16.711674 
Loop time of 1.54972e-06 on 2 procs for 0 steps with 24000 atoms

0.0% CPU use with 2 MPI tasks x no OpenMP threads

MPI task timing breakdown:
Section |  min time  |  avg time  |  max time  |%varavg| %total
---------------------------------------------------------------
Pair    | 0          | 0          | 0          |   0.0 |  0.00
Bond    | 0          | 0          | 0          |   0.0 |  0.00
Neigh   | 0          | 0          | 0          |   0.0 |  0.00
Comm    | 0          | 0          | 0          |   0.0 |  0.00
Output  | 0          | 0          | 0          |   0.0 |  0.00
Modify  | 0          | 0          | 0          |   0.0 |  0.00
Other   |            | 1.55e-06   |            |       |100.00

Nlocal:    12000 ave 12101 max 11899 min
Histogram: 1 0 0 0 0 0 0 0 0 1
Nghost:    41971 ave 42072 max 41870 min
Histogram: 1 0 0 0 0 0 0 0 0 1
Neighs:    599470 ave 607121 max 591820 min
Histogram: 1 0 0 0 0 0 0 0 0 1

Total # of neighbors = 1198941
Ave neighs/atom = 49.9559
Ave special neighs/atom = 0
Neighbor list builds = 0
Dangerous builds not checked
WARNING: Use special bonds = 0,1,1 with bond style fene (../bond_fene.cpp:188)
Setting up Verlet run ...
  Unit style  : lj
  Current step: 36
  Time step   : 0.005
Memory usage per processor = 19.0672 Mbytes
Step Temp Press Pxy visc vave 
      36   0.44450588    17.950247   0.14274372   -1.4274372            0 
Loop time of 1.54972e-06 on 2 procs for 0 steps with 24000 atoms

0.0% CPU use with 2 MPI tasks x no OpenMP threads

MPI task timing breakdown:
Section |  min time  |  avg time  |  max time  |%varavg| %total
---------------------------------------------------------------
Pair    | 0          | 0          | 0          |   0.0 |  0.00
Bond    | 0          | 0          | 0          |   0.0 |  0.00
Neigh   | 0          | 0          | 0          |   0.0 |  0.00
Comm    | 0          | 0          | 0          |   0.0 |  0.00
Output  | 0          | 0          | 0          |   0.0 |  0.00
Modify  | 0          | 0          | 0          |   0.0 |  0.00
Other   |            | 1.55e-06   |            |       |100.00

Nlocal:    12000 ave 12101 max 11899 min
Histogram: 1 0 0 0 0 0 0 0 0 1
Nghost:    41971 ave 42072 max 41870 min
Histogram: 1 0 0 0 0 0 0 0 0 1
Neighs:    599470 ave 607121 max 591820 min
Histogram: 1 0 0 0 0 0 0 0 0 1

Total # of neighbors = 1198941
Ave neighs/atom = 49.9559
Ave special neighs/atom = 0
Neighbor list builds = 0
Dangerous builds not checked
0000Total wall time: 0:00:02
numProcs 2 nprocs 2
Using all 2 for LAMMPS simulation
LAMMPS (14 May 2016)
fix		shear all deform 1 xy erate 0.030965 remap v flip yes units boxfix		shear all deform 1 xy erate 0.030963 remap v flip yes units boxCreated triclinic box = (0 0 0) to (20 20 20) with tilt (0 0 0)
  1 by 1 by 2 MPI processor grid
Read molecule polymer:
  15 atoms with 2 types
  14 bonds with 3 types
  0 angles with 0 types
  0 dihedrals with 0 types
  0 impropers with 0 types
Created 24000 atoms
Created 0 atoms
24000 atoms in group water
0 atoms in group polymer
Setting atom values ...
  24000 settings made for type
WARNING: Resetting reneighboring criteria during minimization (../min.cpp:168)
WARNING: Use special bonds = 0,1,1 with bond style fene (../bond_fene.cpp:188)
Neighbor list info ...
  1 neighbor list requests
  update every 1 steps, delay 0 steps, check yes
  max neighbors/atom: 2000, page size: 100000
  master list distance cutoff = 2
  ghost atom cutoff = 5
  binsize = 1, bins = 20 20 20
Setting up cg style minimization ...
  Unit style: lj
Memory usage per processor = 24.0367 Mbytes
Step Temp E_pair E_mol TotEng Press 
       0            0    7.8441595            0    7.8441595    18.844752 
      36            0    4.2162452            0    4.2162452    16.613297 
Loop time of 1.98219 on 2 procs for 36 steps with 24000 atoms

99.7% CPU use with 2 MPI tasks x no OpenMP threads

Minimization stats:
  Stopping criterion = energy tolerance
  Energy initial, next-to-last, final = 
         7.84415951736      4.21627648972       4.2162452417
  Force two-norm initial, final = 6804.29 4029.97
  Force max component initial, final = 159.709 92.4734
  Final line search alpha, max atom move = 1.50171e-05 0.00138868
  Iterations, force evaluations = 36 122

MPI task timing breakdown:
Section |  min time  |  avg time  |  max time  |%varavg| %total
---------------------------------------------------------------
Pair    | 1.5516     | 1.5824     | 1.6132     |   2.4 | 79.83
Bond    | 7.2479e-05 | 7.7128e-05 | 8.1778e-05 |   0.1 |  0.00
Neigh   | 0.095195   | 0.095221   | 0.095248   |   0.0 |  4.80
Comm    | 0.23747    | 0.26757    | 0.29767    |   5.8 | 13.50
Output  | 0          | 0          | 0          |   0.0 |  0.00
Modify  | 0          | 0          | 0          |   0.0 |  0.00
Other   |            | 0.03693    |            |       |  1.86

Nlocal:    12000 ave 12120 max 11880 min
Histogram: 1 0 0 0 0 0 0 0 0 1
Nghost:    41964 ave 42084 max 41844 min
Histogram: 1 0 0 0 0 0 0 0 0 1
Neighs:    600304 ave 609048 max 591559 min
Histogram: 1 0 0 0 0 0 0 0 0 1

Total # of neighbors = 1200607
Ave neighs/atom = 50.0253
Ave special neighs/atom = 0
Neighbor list builds = 2
Dangerous builds not checked
WARNING: Use special bonds = 0,1,1 with bond style fene (../bond_fene.cpp:188)
Neighbor list info ...
  1 neighbor list requests
  update every 6 steps, delay 0 steps, check no
  max neighbors/atom: 2000, page size: 100000
  master list distance cutoff = 2
  ghost atom cutoff = 5
  binsize = 1, bins = 20 20 20
Setting up Verlet run ...
  Unit style  : lj
  Current step: 36
  Time step   : 0.01
Memory usage per processor = 19.052 Mbytes
Step Temp E_pair E_mol TotEng Press 
      36            0    4.2162452            0    4.2162452    16.711674 
Loop time of 2.02656e-06 on 2 procs for 0 steps with 24000 atoms

0.0% CPU use with 2 MPI tasks x no OpenMP threads

MPI task timing breakdown:
Section |  min time  |  avg time  |  max time  |%varavg| %total
---------------------------------------------------------------
Pair    | 0          | 0          | 0          |   0.0 |  0.00
Bond    | 0          | 0          | 0          |   0.0 |  0.00
Neigh   | 0          | 0          | 0          |   0.0 |  0.00
Comm    | 0          | 0          | 0          |   0.0 |  0.00
Output  | 0          | 0          | 0          |   0.0 |  0.00
Modify  | 0          | 0          | 0          |   0.0 |  0.00
Other   |            | 2.027e-06  |            |       |100.00

Nlocal:    12000 ave 12101 max 11899 min
Histogram: 1 0 0 0 0 0 0 0 0 1
Nghost:    41971 ave 42072 max 41870 min
Histogram: 1 0 0 0 0 0 0 0 0 1
Neighs:    599470 ave 607121 max 591820 min
Histogram: 1 0 0 0 0 0 0 0 0 1

Total # of neighbors = 1198941
Ave neighs/atom = 49.9559
Ave special neighs/atom = 0
Neighbor list builds = 0
Dangerous builds not checked
WARNING: Use special bonds = 0,1,1 with bond style fene (../bond_fene.cpp:188)
Setting up Verlet run ...
  Unit style  : lj
  Current step: 36
  Time step   : 0.005
Memory usage per processor = 19.0672 Mbytes
Step Temp Press Pxy visc vave 
      36   0.44450588    17.950247   0.14274372   -1.4274372            0 
Loop time of 1.43051e-06 on 2 procs for 0 steps with 24000 atoms

0.0% CPU use with 2 MPI tasks x no OpenMP threads

MPI task timing breakdown:
Section |  min time  |  avg time  |  max time  |%varavg| %total
---------------------------------------------------------------
Pair    | 0          | 0          | 0          |   0.0 |  0.00
Bond    | 0          | 0          | 0          |   0.0 |  0.00
Neigh   | 0          | 0          | 0          |   0.0 |  0.00
Comm    | 0          | 0          | 0          |   0.0 |  0.00
Output  | 0          | 0          | 0          |   0.0 |  0.00
Modify  | 0          | 0          | 0          |   0.0 |  0.00
Other   |            | 1.431e-06  |            |       |100.00

Nlocal:    12000 ave 12101 max 11899 min
Histogram: 1 0 0 0 0 0 0 0 0 1
Nghost:    41971 ave 42072 max 41870 min
Histogram: 1 0 0 0 0 0 0 0 0 1
Neighs:    599470 ave 607121 max 591820 min
Histogram: 1 0 0 0 0 0 0 0 0 1

Total # of neighbors = 1198941
Ave neighs/atom = 49.9559
Ave special neighs/atom = 0
Neighbor list builds = 0
Dangerous builds not checked
0000Total wall time: 0:00:02
numProcs 2 nprocs 2
Using all 2 for LAMMPS simulation
LAMMPS (14 May 2016)
fix		shear all deform 1 xy erate 0.051580 remap v flip yes units boxfix		shear all deform 1 xy erate 0.051502 remap v flip yes units boxCreated triclinic box = (0 0 0) to (20 20 20) with tilt (0 0 0)
  1 by 1 by 2 MPI processor grid
Read molecule polymer:
  15 atoms with 2 types
  14 bonds with 3 types
  0 angles with 0 types
  0 dihedrals with 0 types
  0 impropers with 0 types
Created 24000 atoms
Created 0 atoms
24000 atoms in group water
0 atoms in group polymer
Setting atom values ...
  24000 settings made for type
WARNING: Resetting reneighboring criteria during minimization (../min.cpp:168)
WARNING: Use special bonds = 0,1,1 with bond style fene (../bond_fene.cpp:188)
Neighbor list info ...
  1 neighbor list requests
  update every 1 steps, delay 0 steps, check yes
  max neighbors/atom: 2000, page size: 100000
  master list distance cutoff = 2
  ghost atom cutoff = 5
  binsize = 1, bins = 20 20 20
Setting up cg style minimization ...
  Unit style: lj
Memory usage per processor = 24.0367 Mbytes
Step Temp E_pair E_mol TotEng Press 
       0            0    7.8441595            0    7.8441595    18.844752 
      36            0    4.2162452            0    4.2162452    16.613297 
Loop time of 1.94244 on 2 procs for 36 steps with 24000 atoms

100.0% CPU use with 2 MPI tasks x no OpenMP threads

Minimization stats:
  Stopping criterion = energy tolerance
  Energy initial, next-to-last, final = 
         7.84415951736      4.21627648972       4.2162452417
  Force two-norm initial, final = 6804.29 4029.97
  Force max component initial, final = 159.709 92.4734
  Final line search alpha, max atom move = 1.50171e-05 0.00138868
  Iterations, force evaluations = 36 122

MPI task timing breakdown:
Section |  min time  |  avg time  |  max time  |%varavg| %total
---------------------------------------------------------------
Pair    | 1.5306     | 1.5546     | 1.5786     |   1.9 | 80.03
Bond    | 6.938e-05  | 7.4267e-05 | 7.9155e-05 |   0.1 |  0.00
Neigh   | 0.095021   | 0.095043   | 0.095066   |   0.0 |  4.89
Comm    | 0.23306    | 0.25646    | 0.27987    |   4.6 | 13.20
Output  | 0          | 0          | 0          |   0.0 |  0.00
Modify  | 0          | 0          | 0          |   0.0 |  0.00
Other   |            | 0.03625    |            |       |  1.87

Nlocal:    12000 ave 12120 max 11880 min
Histogram: 1 0 0 0 0 0 0 0 0 1
Nghost:    41964 ave 42084 max 41844 min
Histogram: 1 0 0 0 0 0 0 0 0 1
Neighs:    600304 ave 609048 max 591559 min
Histogram: 1 0 0 0 0 0 0 0 0 1

Total # of neighbors = 1200607
Ave neighs/atom = 50.0253
Ave special neighs/atom = 0
Neighbor list builds = 2
Dangerous builds not checked
WARNING: Use special bonds = 0,1,1 with bond style fene (../bond_fene.cpp:188)
Neighbor list info ...
  1 neighbor list requests
  update every 6 steps, delay 0 steps, check no
  max neighbors/atom: 2000, page size: 100000
  master list distance cutoff = 2
  ghost atom cutoff = 5
  binsize = 1, bins = 20 20 20
Setting up Verlet run ...
  Unit style  : lj
  Current step: 36
  Time step   : 0.01
Memory usage per processor = 19.052 Mbytes
Step Temp E_pair E_mol TotEng Press 
      36            0    4.2162452            0    4.2162452    16.711674 
Loop time of 1.66893e-06 on 2 procs for 0 steps with 24000 atoms

0.0% CPU use with 2 MPI tasks x no OpenMP threads

MPI task timing breakdown:
Section |  min time  |  avg time  |  max time  |%varavg| %total
---------------------------------------------------------------
Pair    | 0          | 0          | 0          |   0.0 |  0.00
Bond    | 0          | 0          | 0          |   0.0 |  0.00
Neigh   | 0          | 0          | 0          |   0.0 |  0.00
Comm    | 0          | 0          | 0          |   0.0 |  0.00
Output  | 0          | 0          | 0          |   0.0 |  0.00
Modify  | 0          | 0          | 0          |   0.0 |  0.00
Other   |            | 1.669e-06  |            |       |100.00

Nlocal:    12000 ave 12101 max 11899 min
Histogram: 1 0 0 0 0 0 0 0 0 1
Nghost:    41971 ave 42072 max 41870 min
Histogram: 1 0 0 0 0 0 0 0 0 1
Neighs:    599470 ave 607121 max 591820 min
Histogram: 1 0 0 0 0 0 0 0 0 1

Total # of neighbors = 1198941
Ave neighs/atom = 49.9559
Ave special neighs/atom = 0
Neighbor list builds = 0
Dangerous builds not checked
WARNING: Use special bonds = 0,1,1 with bond style fene (../bond_fene.cpp:188)
Setting up Verlet run ...
  Unit style  : lj
  Current step: 36
  Time step   : 0.005
Memory usage per processor = 19.0672 Mbytes
Step Temp Press Pxy visc vave 
      36   0.44450588    17.950247   0.14274372   -1.4274372            0 
Loop time of 2.02656e-06 on 2 procs for 0 steps with 24000 atoms

0.0% CPU use with 2 MPI tasks x no OpenMP threads

MPI task timing breakdown:
Section |  min time  |  avg time  |  max time  |%varavg| %total
---------------------------------------------------------------
Pair    | 0          | 0          | 0          |   0.0 |  0.00
Bond    | 0          | 0          | 0          |   0.0 |  0.00
Neigh   | 0          | 0          | 0          |   0.0 |  0.00
Comm    | 0          | 0          | 0          |   0.0 |  0.00
Output  | 0          | 0          | 0          |   0.0 |  0.00
Modify  | 0          | 0          | 0          |   0.0 |  0.00
Other   |            | 2.027e-06  |            |       |100.00

Nlocal:    12000 ave 12101 max 11899 min
Histogram: 1 0 0 0 0 0 0 0 0 1
Nghost:    41971 ave 42072 max 41870 min
Histogram: 1 0 0 0 0 0 0 0 0 1
Neighs:    599470 ave 607121 max 591820 min
Histogram: 1 0 0 0 0 0 0 0 0 1

Total # of neighbors = 1198941
Ave neighs/atom = 49.9559
Ave special neighs/atom = 0
Neighbor list builds = 0
Dangerous builds not checked
0000Total wall time: 0:00:02
numProcs 2 nprocs 2
Using all 2 for LAMMPS simulation
LAMMPS (14 May 2016)
fix		shear all deform 1 xy erate 0.051494 remap v flip yes units boxfix		shear all deform 1 xy erate 0.051505 remap v flip yes units boxCreated triclinic box = (0 0 0) to (20 20 20) with tilt (0 0 0)
  1 by 1 by 2 MPI processor grid
Read molecule polymer:
  15 atoms with 2 types
  14 bonds with 3 types
  0 angles with 0 types
  0 dihedrals with 0 types
  0 impropers with 0 types
Created 24000 atoms
Created 0 atoms
24000 atoms in group water
0 atoms in group polymer
Setting atom values ...
  24000 settings made for type
WARNING: Resetting reneighboring criteria during minimization (../min.cpp:168)
WARNING: Use special bonds = 0,1,1 with bond style fene (../bond_fene.cpp:188)
Neighbor list info ...
  1 neighbor list requests
  update every 1 steps, delay 0 steps, check yes
  max neighbors/atom: 2000, page size: 100000
  master list distance cutoff = 2
  ghost atom cutoff = 5
  binsize = 1, bins = 20 20 20
Setting up cg style minimization ...
  Unit style: lj
Memory usage per processor = 24.0367 Mbytes
Step Temp E_pair E_mol TotEng Press 
       0            0    7.8441595            0    7.8441595    18.844752 
      36            0    4.2162452            0    4.2162452    16.613297 
Loop time of 1.94227 on 2 procs for 36 steps with 24000 atoms

100.0% CPU use with 2 MPI tasks x no OpenMP threads

Minimization stats:
  Stopping criterion = energy tolerance
  Energy initial, next-to-last, final = 
         7.84415951736      4.21627648972       4.2162452417
[...]
time step continuity errors : sum local = 4.00311e-09, global = 1.25035e-10, cumulative = -3.30341e-06
GAMG:  Solving for p, Initial residual = 5.3228e-07, Final residual = 5.3228e-07, No Iterations 0
time step continuity errors : sum local = 7.93602e-09, global = -3.79467e-09, cumulative = -3.30721e-06
GAMG:  Solving for p, Initial residual = 7.89604e-07, Final residual = 7.89604e-07, No Iterations 0
time step continuity errors : sum local = 1.17726e-08, global = -6.66518e-09, cumulative = -3.31387e-06
GAMG:  Solving for p, Initial residual = 9.71033e-07, Final residual = 9.71033e-07, No Iterations 0
time step continuity errors : sum local = 1.44776e-08, global = -8.74329e-09, cumulative = -3.32262e-06
GAMG:  Solving for p, Initial residual = 1.12478e-06, Final residual = 3.18376e-07, No Iterations 1
time step continuity errors : sum local = 4.74681e-09, global = -1.05861e-10, cumulative = -3.32272e-06
ExecutionTime = 57.57 s  ClockTime = 58 s

Time = 4.87

Courant Number mean: 0.0599797 max: 0.100013
Bad Mood
Bad Mood
smoothSolver:  Solving for Ux, Initial residual = 3.25181e-07, Final residual = 3.25181e-07, No Iterations 0
smoothSolver:  Solving for Uy, Initial residual = 1.32486e-06, Final residual = 1.32486e-06, No Iterations 0
GAMG:  Solving for p, Initial residual = 5.96979e-07, Final residual = 5.96979e-07, No Iterations 0
time step continuity errors : sum local = 8.90063e-09, global = 3.83863e-09, cumulative = -3.31888e-06
GAMG:  Solving for p, Initial residual = 8.31408e-07, Final residual = 8.31408e-07, No Iterations 0
time step continuity errors : sum local = 1.23958e-08, global = 6.72363e-09, cumulative = -3.31216e-06
GAMG:  Solving for p, Initial residual = 1.01005e-06, Final residual = 2.32855e-07, No Iterations 1
time step continuity errors : sum local = 3.47174e-09, global = 1.1718e-10, cumulative = -3.31204e-06
GAMG:  Solving for p, Initial residual = 5.06628e-07, Final residual = 5.06628e-07, No Iterations 0
time step continuity errors : sum local = 7.55355e-09, global = -3.77544e-09, cumulative = -3.31582e-06
GAMG:  Solving for p, Initial residual = 7.57809e-07, Final residual = 7.57809e-07, No Iterations 0
time step continuity errors : sum local = 1.12985e-08, global = -6.61499e-09, cumulative = -3.32243e-06
ExecutionTime = 57.57 s  ClockTime = 58 s

Time = 4.88

Courant Number mean: 0.0599797 max: 0.100013
Bad Mood
Bad Mood
smoothSolver:  Solving for Ux, Initial residual = 2.46266e-07, Final residual = 2.46266e-07, No Iterations 0
smoothSolver:  Solving for Uy, Initial residual = 1.23888e-06, Final residual = 1.23888e-06, No Iterations 0
GAMG:  Solving for p, Initial residual = 1.11266e-06, Final residual = 2.58571e-07, No Iterations 1
time step continuity errors : sum local = 3.85516e-09, global = -1.31859e-10, cumulative = -3.32256e-06
GAMG:  Solving for p, Initial residual = 5.11059e-07, Final residual = 5.11059e-07, No Iterations 0
time step continuity errors : sum local = 7.61962e-09, global = 3.62282e-09, cumulative = -3.31894e-06
GAMG:  Solving for p, Initial residual = 7.57677e-07, Final residual = 7.57677e-07, No Iterations 0
time step continuity errors : sum local = 1.12966e-08, global = 6.37123e-09, cumulative = -3.31257e-06
GAMG:  Solving for p, Initial residual = 9.24838e-07, Final residual = 9.24838e-07, No Iterations 0
time step continuity errors : sum local = 1.37888e-08, global = 8.35857e-09, cumulative = -3.30421e-06
GAMG:  Solving for p, Initial residual = 1.06865e-06, Final residual = 3.01978e-07, No Iterations 1
time step continuity errors : sum local = 4.50233e-09, global = 1.02653e-10, cumulative = -3.30411e-06
ExecutionTime = 57.57 s  ClockTime = 58 s

Time = 4.89

Courant Number mean: 0.0599797 max: 0.100013
Bad Mood
Bad Mood
smoothSolver:  Solving for Ux, Initial residual = 3.08574e-07, Final residual = 3.08574e-07, No Iterations 0
smoothSolver:  Solving for Uy, Initial residual = 1.2099e-06, Final residual = 1.2099e-06, No Iterations 0
GAMG:  Solving for p, Initial residual = 5.65082e-07, Final residual = 5.65082e-07, No Iterations 0
time step continuity errors : sum local = 8.42507e-09, global = -3.62585e-09, cumulative = -3.30774e-06
GAMG:  Solving for p, Initial residual = 7.84186e-07, Final residual = 7.84186e-07, No Iterations 0
time step continuity errors : sum local = 1.16918e-08, global = -6.35587e-09, cumulative = -3.31409e-06
GAMG:  Solving for p, Initial residual = 9.53367e-07, Final residual = 9.53367e-07, No Iterations 0
time step continuity errors : sum local = 1.42142e-08, global = -8.32704e-09, cumulative = -3.32242e-06
GAMG:  Solving for p, Initial residual = 1.08125e-06, Final residual = 2.82189e-07, No Iterations 1
time step continuity errors : sum local = 4.20729e-09, global = -1.34212e-10, cumulative = -3.32255e-06
GAMG:  Solving for p, Initial residual = 6.25463e-07, Final residual = 6.25463e-07, No Iterations 0
time step continuity errors : sum local = 9.32531e-09, global = 4.82237e-09, cumulative = -3.31773e-06
ExecutionTime = 57.57 s  ClockTime = 58 s

Time = 4.9

Courant Number mean: 0.0599797 max: 0.100013
Bad Mood
Bad Mood
smoothSolver:  Solving for Ux, Initial residual = 3.46757e-07, Final residual = 3.46757e-07, No Iterations 0
smoothSolver:  Solving for Uy, Initial residual = 1.38245e-06, Final residual = 1.38245e-06, No Iterations 0
GAMG:  Solving for p, Initial residual = 1.09077e-06, Final residual = 2.2181e-07, No Iterations 1
time step continuity errors : sum local = 3.30707e-09, global = 1.2093e-10, cumulative = -3.31761e-06
GAMG:  Solving for p, Initial residual = 3.9792e-07, Final residual = 3.9792e-07, No Iterations 0
time step continuity errors : sum local = 5.93278e-09, global = -2.41218e-09, cumulative = -3.32002e-06
GAMG:  Solving for p, Initial residual = 5.60628e-07, Final residual = 5.60628e-07, No Iterations 0
time step continuity errors : sum local = 8.35866e-09, global = -4.26941e-09, cumulative = -3.32429e-06
GAMG:  Solving for p, Initial residual = 6.76162e-07, Final residual = 6.76162e-07, No Iterations 0
time step continuity errors : sum local = 1.00812e-08, global = -5.61052e-09, cumulative = -3.3299e-06
GAMG:  Solving for p, Initial residual = 7.62267e-07, Final residual = 7.62267e-07, No Iterations 0
time step continuity errors : sum local = 1.1365e-08, global = -6.58773e-09, cumulative = -3.33649e-06
ExecutionTime = 57.58 s  ClockTime = 58 s

Time = 4.91

Courant Number mean: 0.0599797 max: 0.100013
Bad Mood
Bad Mood
smoothSolver:  Solving for Ux, Initial residual = 2.10395e-07, Final residual = 2.10395e-07, No Iterations 0
smoothSolver:  Solving for Uy, Initial residual = 1.20119e-06, Final residual = 1.20119e-06, No Iterations 0
GAMG:  Solving for p, Initial residual = 1.08098e-06, Final residual = 2.6038e-07, No Iterations 1
time step continuity errors : sum local = 3.88213e-09, global = -1.21758e-10, cumulative = -3.33661e-06
GAMG:  Solving for p, Initial residual = 5.17496e-07, Final residual = 5.17496e-07, No Iterations 0
time step continuity errors : sum local = 7.71558e-09, global = 3.68533e-09, cumulative = -3.33293e-06
GAMG:  Solving for p, Initial residual = 7.66086e-07, Final residual = 7.66086e-07, No Iterations 0
time step continuity errors : sum local = 1.14219e-08, global = 6.47309e-09, cumulative = -3.32645e-06
GAMG:  Solving for p, Initial residual = 9.42879e-07, Final residual = 9.42879e-07, No Iterations 0
time step continuity errors : sum local = 1.40578e-08, global = 8.49114e-09, cumulative = -3.31796e-06
GAMG:  Solving for p, Initial residual = 1.09144e-06, Final residual = 3.09568e-07, No Iterations 1
time step continuity errors : sum local = 4.6155e-09, global = 1.03154e-10, cumulative = -3.31786e-06
ExecutionTime = 57.58 s  ClockTime = 58 s

Time = 4.92

Courant Number mean: 0.0599797 max: 0.100013
Bad Mood
Bad Mood
smoothSolver:  Solving for Ux, Initial residual = 3.15781e-07, Final residual = 3.15781e-07, No Iterations 0
smoothSolver:  Solving for Uy, Initial residual = 1.27071e-06, Final residual = 1.27071e-06, No Iterations 0
GAMG:  Solving for p, Initial residual = 5.77964e-07, Final residual = 5.77964e-07, No Iterations 0
time step continuity errors : sum local = 8.61713e-09, global = -3.72446e-09, cumulative = -3.32158e-06
GAMG:  Solving for p, Initial residual = 8.06694e-07, Final residual = 8.06694e-07, No Iterations 0
time step continuity errors : sum local = 1.20274e-08, global = -6.52421e-09, cumulative = -3.32811e-06
GAMG:  Solving for p, Initial residual = 9.79168e-07, Final residual = 9.79168e-07, No Iterations 0
time step continuity errors : sum local = 1.45989e-08, global = -8.54527e-09, cumulative = -3.33665e-06
GAMG:  Solving for p, Initial residual = 1.11304e-06, Final residual = 2.89972e-07, No Iterations 1
time step continuity errors : sum local = 4.32333e-09, global = -1.37354e-10, cumulative = -3.33679e-06
GAMG:  Solving for p, Initial residual = 6.45318e-07, Final residual = 6.45318e-07, No Iterations 0
time step continuity errors : sum local = 9.62134e-09, global = 4.9548e-09, cumulative = -3.33183e-06
ExecutionTime = 57.58 s  ClockTime = 58 s

Time = 4.93

Courant Number mean: 0.0599797 max: 0.100013
Bad Mood
Bad Mood
smoothSolver:  Solving for Ux, Initial residual = 3.57251e-07, Final residual = 3.57251e-07, No Iterations 0
smoothSolver:  Solving for Uy, Initial residual = 1.39161e-06, Final residual = 1.39161e-06, No Iterations 0
GAMG:  Solving for p, Initial residual = 1.12234e-06, Final residual = 2.28292e-07, No Iterations 1
time step continuity errors : sum local = 3.40371e-09, global = 1.23399e-10, cumulative = -3.33171e-06
GAMG:  Solving for p, Initial residual = 4.06653e-07, Final residual = 4.06653e-07, No Iterations 0
time step continuity errors : sum local = 6.06298e-09, global = -2.48108e-09, cumulative = -3.33419e-06
GAMG:  Solving for p, Initial residual = 5.76531e-07, Final residual = 5.76531e-07, No Iterations 0
time step continuity errors : sum local = 8.59577e-09, global = -4.39025e-09, cumulative = -3.33858e-06
GAMG:  Solving for p, Initial residual = 6.93783e-07, Final residual = 6.93783e-07, No Iterations 0
time step continuity errors : sum local = 1.03439e-08, global = -5.76868e-09, cumulative = -3.34435e-06
GAMG:  Solving for p, Initial residual = 7.83958e-07, Final residual = 7.83958e-07, No Iterations 0
time step continuity errors : sum local = 1.16884e-08, global = -6.773e-09, cumulative = -3.35112e-06
ExecutionTime = 57.58 s  ClockTime = 58 s

Time = 4.94

Courant Number mean: 0.0599797 max: 0.100013
Bad Mood
Bad Mood
smoothSolver:  Solving for Ux, Initial residual = 2.16287e-07, Final residual = 2.16287e-07, No Iterations 0
smoothSolver:  Solving for Uy, Initial residual = 1.2989e-06, Final residual = 1.2989e-06, No Iterations 0
GAMG:  Solving for p, Initial residual = 1.1105e-06, Final residual = 2.68262e-07, No Iterations 1
time step continuity errors : sum local = 3.99965e-09, global = -1.24927e-10, cumulative = -3.35125e-06
GAMG:  Solving for p, Initial residual = 5.31819e-07, Final residual = 5.31819e-07, No Iterations 0
time step continuity errors : sum local = 7.92914e-09, global = 3.79138e-09, cumulative = -3.34746e-06
GAMG:  Solving for p, Initial residual = 7.8892e-07, Final residual = 7.8892e-07, No Iterations 0
time step continuity errors : sum local = 1.17624e-08, global = 6.65941e-09, cumulative = -3.3408e-06
GAMG:  Solving for p, Initial residual = 9.70192e-07, Final residual = 9.70192e-07, No Iterations 0
time step continuity errors : sum local = 1.4465e-08, global = 8.73571e-09, cumulative = -3.33206e-06
GAMG:  Solving for p, Initial residual = 1.12381e-06, Final residual = 3.181e-07, No Iterations 1
time step continuity errors : sum local = 4.7427e-09, global = 1.05769e-10, cumulative = -3.33196e-06
ExecutionTime = 57.58 s  ClockTime = 58 s

Time = 4.95

Courant Number mean: 0.0599797 max: 0.100013
Bad Mood
Bad Mood
smoothSolver:  Solving for Ux, Initial residual = 3.24899e-07, Final residual = 3.24899e-07, No Iterations 0
smoothSolver:  Solving for Uy, Initial residual = 1.32371e-06, Final residual = 1.32371e-06, No Iterations 0
GAMG:  Solving for p, Initial residual = 5.96464e-07, Final residual = 5.96464e-07, No Iterations 0
time step continuity errors : sum local = 8.89295e-09, global = -3.8353e-09, cumulative = -3.33579e-06
GAMG:  Solving for p, Initial residual = 8.30686e-07, Final residual = 8.30686e-07, No Iterations 0
time step continuity errors : sum local = 1.23851e-08, global = -6.7178e-09, cumulative = -3.34251e-06
GAMG:  Solving for p, Initial residual = 1.00917e-06, Final residual = 2.32653e-07, No Iterations 1
time step continuity errors : sum local = 3.46873e-09, global = -1.17079e-10, cumulative = -3.34263e-06
GAMG:  Solving for p, Initial residual = 5.06189e-07, Final residual = 5.06189e-07, No Iterations 0
time step continuity errors : sum local = 7.54701e-09, global = 3.77217e-09, cumulative = -3.33885e-06
GAMG:  Solving for p, Initial residual = 7.57152e-07, Final residual = 7.57152e-07, No Iterations 0
time step continuity errors : sum local = 1.12887e-08, global = 6.60926e-09, cumulative = -3.33225e-06
ExecutionTime = 57.58 s  ClockTime = 58 s

Time = 4.96

Courant Number mean: 0.0599797 max: 0.100013
Bad Mood
Bad Mood
smoothSolver:  Solving for Ux, Initial residual = 2.46053e-07, Final residual = 2.46053e-07, No Iterations 0
smoothSolver:  Solving for Uy, Initial residual = 1.2378e-06, Final residual = 1.2378e-06, No Iterations 0
GAMG:  Solving for p, Initial residual = 1.11169e-06, Final residual = 2.58347e-07, No Iterations 1
time step continuity errors : sum local = 3.85182e-09, global = 1.31744e-10, cumulative = -3.33211e-06
GAMG:  Solving for p, Initial residual = 5.10617e-07, Final residual = 5.10617e-07, No Iterations 0
time step continuity errors : sum local = 7.61302e-09, global = -3.61968e-09, cumulative = -3.33573e-06
GAMG:  Solving for p, Initial residual = 7.57021e-07, Final residual = 7.57021e-07, No Iterations 0
time step continuity errors : sum local = 1.12868e-08, global = -6.36571e-09, cumulative = -3.3421e-06
GAMG:  Solving for p, Initial residual = 9.24037e-07, Final residual = 9.24037e-07, No Iterations 0
time step continuity errors : sum local = 1.37769e-08, global = -8.35133e-09, cumulative = -3.35045e-06
GAMG:  Solving for p, Initial residual = 1.06772e-06, Final residual = 3.01716e-07, No Iterations 1
time step continuity errors : sum local = 4.49843e-09, global = -1.02564e-10, cumulative = -3.35055e-06
ExecutionTime = 57.59 s  ClockTime = 58 s

Time = 4.97

Courant Number mean: 0.0599797 max: 0.100013
Bad Mood
Bad Mood
smoothSolver:  Solving for Ux, Initial residual = 3.08307e-07, Final residual = 3.08307e-07, No Iterations 0
smoothSolver:  Solving for Uy, Initial residual = 1.20884e-06, Final residual = 1.20884e-06, No Iterations 0
GAMG:  Solving for p, Initial residual = 5.64592e-07, Final residual = 5.64592e-07, No Iterations 0
time step continuity errors : sum local = 8.41776e-09, global = 3.62271e-09, cumulative = -3.34693e-06
GAMG:  Solving for p, Initial residual = 7.83508e-07, Final residual = 7.83508e-07, No Iterations 0
time step continuity errors : sum local = 1.16817e-08, global = 6.35037e-09, cumulative = -3.34058e-06
GAMG:  Solving for p, Initial residual = 9.52542e-07, Final residual = 9.52542e-07, No Iterations 0
time step continuity errors : sum local = 1.42019e-08, global = 8.31982e-09, cumulative = -3.33226e-06
GAMG:  Solving for p, Initial residual = 1.08032e-06, Final residual = 2.81945e-07, No Iterations 1
time step continuity errors : sum local = 4.20364e-09, global = 1.34095e-10, cumulative = -3.33213e-06
GAMG:  Solving for p, Initial residual = 6.24921e-07, Final residual = 6.24921e-07, No Iterations 0
time step continuity errors : sum local = 9.31723e-09, global = -4.81819e-09, cumulative = -3.33694e-06
ExecutionTime = 57.59 s  ClockTime = 58 s

Time = 4.98

Courant Number mean: 0.0599797 max: 0.100013
Bad Mood
Bad Mood
smoothSolver:  Solving for Ux, Initial residual = 3.46457e-07, Final residual = 3.46457e-07, No Iterations 0
smoothSolver:  Solving for Uy, Initial residual = 1.38125e-06, Final residual = 1.38125e-06, No Iterations 0
GAMG:  Solving for p, Initial residual = 1.08982e-06, Final residual = 2.21618e-07, No Iterations 1
time step continuity errors : sum local = 3.30421e-09, global = -1.20825e-10, cumulative = -3.33707e-06
GAMG:  Solving for p, Initial residual = 3.97576e-07, Final residual = 3.97576e-07, No Iterations 0
time step continuity errors : sum local = 5.92764e-09, global = 2.41009e-09, cumulative = -3.33466e-06
GAMG:  Solving for p, Initial residual = 5.60142e-07, Final residual = 5.60142e-07, No Iterations 0
time step continuity errors : sum local = 8.35141e-09, global = 4.26571e-09, cumulative = -3.33039e-06
GAMG:  Solving for p, Initial residual = 6.75576e-07, Final residual = 6.75576e-07, No Iterations 0
time step continuity errors : sum local = 1.00725e-08, global = 5.60566e-09, cumulative = -3.32478e-06
GAMG:  Solving for p, Initial residual = 7.61606e-07, Final residual = 7.61606e-07, No Iterations 0
time step continuity errors : sum local = 1.13551e-08, global = 6.58203e-09, cumulative = -3.3182e-06
ExecutionTime = 57.59 s  ClockTime = 58 s

Time = 4.99

Courant Number mean: 0.0599797 max: 0.100013
Bad Mood
Bad Mood
smoothSolver:  Solving for Ux, Initial residual = 2.10212e-07, Final residual = 2.10212e-07, No Iterations 0
smoothSolver:  Solving for Uy, Initial residual = 1.20015e-06, Final residual = 1.20015e-06, No Iterations 0
GAMG:  Solving for p, Initial residual = 1.08005e-06, Final residual = 2.60154e-07, No Iterations 1
time step continuity errors : sum local = 3.87876e-09, global = 1.21653e-10, cumulative = -3.31808e-06
GAMG:  Solving for p, Initial residual = 5.17047e-07, Final residual = 5.17047e-07, No Iterations 0
time step continuity errors : sum local = 7.7089e-09, global = -3.68214e-09, cumulative = -3.32176e-06
GAMG:  Solving for p, Initial residual = 7.65422e-07, Final residual = 7.65422e-07, No Iterations 0
time step continuity errors : sum local = 1.1412e-08, global = -6.46748e-09, cumulative = -3.32823e-06
GAMG:  Solving for p, Initial residual = 9.42062e-07, Final residual = 9.42062e-07, No Iterations 0
time step continuity errors : sum local = 1.40456e-08, global = -8.48378e-09, cumulative = -3.33671e-06
GAMG:  Solving for p, Initial residual = 1.09049e-06, Final residual = 3.093e-07, No Iterations 1
time step continuity errors : sum local = 4.6115e-09, global = -1.03065e-10, cumulative = -3.33682e-06
ExecutionTime = 57.59 s  ClockTime = 58 s

Time = 5

Courant Number mean: 0.0599797 max: 0.100013
Bad Mood
Bad Mood
smoothSolver:  Solving for Ux, Initial residual = 3.15507e-07, Final residual = 3.15507e-07, No Iterations 0
smoothSolver:  Solving for Uy, Initial residual = 1.26961e-06, Final residual = 1.26961e-06, No Iterations 0
GAMG:  Solving for p, Initial residual = 5.77461e-07, Final residual = 5.77461e-07, No Iterations 0
time step continuity errors : sum local = 8.60963e-09, global = 3.72124e-09, cumulative = -3.3331e-06
GAMG:  Solving for p, Initial residual = 8.05997e-07, Final residual = 8.05997e-07, No Iterations 0
time step continuity errors : sum local = 1.2017e-08, global = 6.51856e-09, cumulative = -3.32658e-06
GAMG:  Solving for p, Initial residual = 9.78322e-07, Final residual = 9.78322e-07, No Iterations 0
time step continuity errors : sum local = 1.45863e-08, global = 8.53787e-09, cumulative = -3.31804e-06
GAMG:  Solving for p, Initial residual = 1.11208e-06, Final residual = 2.89721e-07, No Iterations 1
time step continuity errors : sum local = 4.31958e-09, global = 1.37235e-10, cumulative = -3.3179e-06
GAMG:  Solving for p, Initial residual = 6.44759e-07, Final residual = 6.44759e-07, No Iterations 0
time step continuity errors : sum local = 9.61301e-09, global = -4.95051e-09, cumulative = -3.32285e-06
ExecutionTime = 57.6 s  ClockTime = 58 s

End

Finalising parallel run
